
     RDKit          2D

 27 30  0  0  0  0  0  0  0  0999 V2000
   10.3778   -8.9759    0.0000 C   0  0  0  0  0  0  0  0  0  0  0  0
    9.7898   -8.6390    0.0000 S   0  0  0  0  0  0  0  0  0  0  0  0
    9.7877   -7.9612    0.0000 O   0  0  0  0  0  0  0  0  0  0  0  0
    9.0572   -9.0655    0.0000 C   0  0  0  0  0  0  0  0  0  0  0  0
    9.0585   -9.9128    0.0000 C   0  0  0  0  0  0  0  0  0  0  0  0
    8.3255  -10.3375    0.0000 C   0  0  0  0  0  0  0  0  0  0  0  0
    7.5911   -9.9151    0.0000 C   0  0  0  0  0  0  0  0  0  0  0  0
    7.5898   -9.0679    0.0000 C   0  0  0  0  0  0  0  0  0  0  0  0
    8.3228   -8.6431    0.0000 C   0  0  0  0  0  0  0  0  0  0  0  0
    6.8577  -10.3401    0.0000 C   0  0  0  0  0  0  0  0  0  0  0  0
    6.7798  -11.1765    0.0000 N   0  0  0  0  0  0  0  0  0  0  0  0
    5.9511  -11.3526    0.0000 C   0  0  0  0  0  0  0  0  0  0  0  0
    5.6063  -12.1270    0.0000 C   0  0  0  0  0  0  0  0  0  0  0  0
    6.0503  -12.8454    0.0000 C   0  0  0  0  0  0  0  0  0  0  0  0
    5.6484  -13.5912    0.0000 C   0  0  0  0  0  0  0  0  0  0  0  0
    4.8016  -13.6161    0.0000 C   0  0  0  0  0  0  0  0  0  0  0  0
    4.4801  -14.2128    0.0000 F   0  0  0  0  0  0  0  0  0  0  0  0
    4.3566  -12.8952    0.0000 C   0  0  0  0  0  0  0  0  0  0  0  0
    4.7584  -12.1493    0.0000 C   0  0  0  0  0  0  0  0  0  0  0  0
    5.5275  -10.6189    0.0000 C   0  0  0  0  0  0  0  0  0  0  0  0
    6.0943   -9.9893    0.0000 N   0  0  0  0  0  0  0  0  0  0  0  0
    4.6845  -10.5304    0.0000 C   0  0  0  0  0  0  0  0  0  0  0  0
    4.1385  -11.1746    0.0000 C   0  0  0  0  0  0  0  0  0  0  0  0
    3.3050  -11.0228    0.0000 C   0  0  0  0  0  0  0  0  0  0  0  0
    3.0196  -10.2251    0.0000 N   0  0  0  0  0  0  0  0  0  0  0  0
    3.5678   -9.5791    0.0000 C   0  0  0  0  0  0  0  0  0  0  0  0
    4.4013   -9.7308    0.0000 C   0  0  0  0  0  0  0  0  0  0  0  0
  1  2  1  0
  2  3  1  0
  2  4  1  0
  4  5  2  0
  5  6  1  0
  6  7  2  0
  7  8  1  0
  8  9  2  0
  9  4  1  0
  7 10  1  0
 10 11  2  0
 11 12  1  0
 12 13  1  0
 13 14  2  0
 14 15  1  0
 15 16  2  0
 16 17  1  0
 16 18  1  0
 18 19  2  0
 19 13  1  0
 12 20  2  0
 20 21  1  0
 21 10  1  0
 20 22  1  0
 22 23  2  0
 23 24  1  0
 24 25  2  0
 25 26  1  0
 26 27  2  0
 27 22  1  0
M  CHG  2   2   1   3  -1
M  END