
     RDKit          2D

 20 21  0  0  0  0  0  0  0  0999 V2000
    0.3572   -2.2688    0.0000 C   0  0  0  0  0  0  0  0  0  0  0  0
   -0.3572   -2.6813    0.0000 C   0  0  0  0  0  0  0  0  0  0  0  0
   -1.0717   -2.2688    0.0000 C   0  0  0  0  0  0  0  0  0  0  0  0
   -1.0717   -1.4438    0.0000 C   0  0  0  0  0  0  0  0  0  0  0  0
   -0.3572   -1.0313    0.0000 C   0  0  0  0  0  0  0  0  0  0  0  0
   -0.3572   -3.5063    0.0000 O   0  0  0  0  0  0  0  0  0  0  0  0
    0.3572   -1.4438    0.0000 C   0  0  0  0  0  0  0  0  0  0  0  0
   -0.3572   -0.2063    0.0000 C   0  0  0  0  0  0  0  0  0  0  0  0
   -1.0717    0.2062    0.0000 C   0  0  0  0  0  0  0  0  0  0  0  0
   -1.0717    1.0312    0.0000 C   0  0  0  0  0  0  0  0  0  0  0  0
    0.3572    0.2062    0.0000 C   0  0  0  0  0  0  0  0  0  0  0  0
    1.0717   -0.2063    0.0000 C   0  0  0  0  0  0  0  0  0  0  0  0
    1.0717   -1.0313    0.0000 C   0  0  0  0  0  0  0  0  0  0  0  0
    0.3572    1.0312    0.0000 C   0  0  0  0  0  0  0  0  0  0  0  0
    1.0717    1.4437    0.0000 C   0  0  0  0  0  0  0  0  0  0  0  0
    1.0717    2.2687    0.0000 C   0  0  0  0  0  0  0  0  0  0  0  0
    0.3572    2.6812    0.0000 C   0  0  0  0  0  0  0  0  0  0  0  0
    0.3572    3.5062    0.0000 O   0  0  0  0  0  0  0  0  0  0  0  0
   -0.3572    2.2687    0.0000 C   0  0  0  0  0  0  0  0  0  0  0  0
   -0.3572    1.4437    0.0000 C   0  0  0  0  0  0  0  0  0  0  0  0
  1  2  2  0
  7  1  1  0
  2  3  1  0
  2  6  1  0
  3  4  2  0
  4  5  1  0
  7  5  2  0
  5  8  1  0
  8  9  1  0
  8 11  1  0
  9 10  1  0
 12 11  1  0
 11 14  1  0
 12 13  1  0
 15 14  2  0
 20 14  1  0
 16 15  1  0
 17 16  2  0
 17 18  1  0
 19 17  1  0
 20 19  2  0
M  END