
     RDKit          2D

 12 12  0  0  0  0  0  0  0  0999 V2000
    0.8157   -0.7646    0.0000 C   0  0  0  0  0  0  0  0  0  0  0  0
    1.5272   -1.1791    0.0000 C   0  0  0  0  0  0  0  0  0  0  0  0
    2.2428   -0.7646    0.0000 C   0  0  0  0  0  0  0  0  0  0  0  0
    0.1003   -1.1791    0.0000 C   0  0  0  0  0  0  0  0  0  0  0  0
    0.1003   -2.0041    0.0000 C   0  0  0  0  0  0  0  0  0  0  0  0
   -0.6153   -2.4145    0.0000 C   0  0  0  0  0  0  0  0  0  0  0  0
   -1.3309   -2.0041    0.0000 C   0  0  0  0  0  0  0  0  0  0  0  0
   -1.3309   -1.1791    0.0000 C   0  0  0  0  0  0  0  0  0  0  0  0
   -0.6153   -0.7646    0.0000 C   0  0  0  0  0  0  0  0  0  0  0  0
   -2.0424   -2.4145    0.0000 S   0  0  0  0  0  0  0  0  0  0  0  0
   -2.7579   -2.0041    0.0000 C   0  0  0  0  0  0  0  0  0  0  0  0
    1.5272   -2.0041    0.0000 N   0  0  0  0  0  0  0  0  0  0  0  0
  1  2  1  0
  2  3  1  0
  4  5  1  0
  5  6  2  0
  6  7  1  0
  7  8  2  0
  8  9  1  0
  4  9  2  0
 10 11  1  0
  7 10  1  0
  1  4  1  0
  2 12  1  0
M  END