
     RDKit          2D

 20 20  0  0  0  0  0  0  0  0999 V2000
   -1.7375   -2.5292    0.0000 Na  0  0  0  0  0 15  0  0  0  0  0  0
    0.5500   -0.2625    0.0000 S   0  0  0  0  0  0  0  0  0  0  0  0
   -0.2708   -1.3167    0.0000 N   0  0  0  0  0  0  0  0  0  0  0  0
    1.0125   -0.9417    0.0000 C   0  0  0  0  0  0  0  0  0  0  0  0
   -0.2458   -0.4917    0.0000 C   0  0  0  0  0  0  0  0  0  0  0  0
    0.5042   -1.5917    0.0000 C   0  0  0  0  0  0  0  0  0  0  0  0
   -1.0958   -1.2917    0.0000 C   0  0  0  0  0  0  0  0  0  0  0  0
   -1.0708   -0.4667    0.0000 C   0  0  0  0  0  0  0  0  0  0  0  0
    0.7375   -2.3875    0.0000 C   0  0  0  0  0  0  0  0  0  0  0  0
    1.0417    0.5333    0.0000 O   0  0  0  0  0  0  0  0  0  0  0  0
    0.1875    0.4833    0.0000 O   0  0  0  0  0  0  0  0  0  0  0  0
    1.7375   -0.5417    0.0000 C   0  0  0  0  0  0  0  0  0  0  0  0
    3.2125    1.0708    0.0000 N   0  0  0  0  0  0  0  0  0  0  0  0
    2.4875    0.6708    0.0000 C   0  0  0  0  0  0  0  0  0  0  0  0
   -1.7083   -1.8542    0.0000 O   0  0  0  0  0  0  0  0  0  0  0  0
    0.1667   -2.9792    0.0000 O   0  0  0  0  0  0  0  0  0  0  0  0
    1.7542    0.2750    0.0000 C   0  0  0  0  0  0  0  0  0  0  0  0
    1.5417   -2.5875    0.0000 O   0  0  0  0  0  0  0  0  0  0  0  0
    1.7125   -1.3667    0.0000 C   0  0  0  0  0  0  0  0  0  0  0  0
   -0.3705    0.5005    0.0000 H   0  0  0  0  0  0  0  0  0  0  0  0
  3  5  1  0
  4  2  1  0
  5  2  1  0
  6  4  1  0
  7  8  1  0
  8  5  1  0
  6  9  1  6
 10  2  2  0
 11  2  2  0
  4 12  1  0
 13 14  3  0
 14 17  1  0
 15  7  2  0
 16  9  1  0
 17 12  2  0
 18  9  2  0
  4 19  1  6
  3  6  1  0
  3  7  1  0
  5 20  1  6
M  CHG  2   1   1  16  -1
M  END