
     RDKit          2D

 31 34  0  0  0  0  0  0  0  0999 V2000
    3.9875   -3.6875    0.0000 C   0  0  0  0  0  0  0  0  0  0  0  0
    3.2750   -3.2667    0.0000 C   0  0  0  0  0  0  0  0  0  0  0  0
    4.6917   -3.2792    0.0000 C   0  0  0  0  0  0  0  0  0  0  0  0
    3.9792   -4.5042    0.0000 C   0  0  0  0  0  0  0  0  0  0  0  0
    8.9667   -2.4500    0.0000 N   0  0  0  0  0  0  0  0  0  0  0  0
    3.2792   -2.4542    0.0000 C   0  0  0  0  0  0  0  0  0  0  0  0
    5.4042   -3.6917    0.0000 C   0  0  0  0  0  0  0  0  0  0  0  0
    3.2667   -4.9167    0.0000 C   0  0  0  0  0  0  0  0  0  0  0  0
    4.6875   -4.9250    0.0000 C   0  0  0  0  0  0  0  0  0  0  0  0
    4.6875   -2.4625    0.0000 C   0  0  0  0  0  0  0  0  0  0  0  0
    3.9750   -6.1542    0.0000 C   0  0  0  0  0  0  0  0  0  0  0  0
    6.1125   -2.4542    0.0000 C   0  0  0  0  0  0  0  0  0  0  0  0
    3.2667   -5.7417    0.0000 C   0  0  0  0  0  0  0  0  0  0  0  0
    4.6792   -5.7500    0.0000 C   0  0  0  0  0  0  0  0  0  0  0  0
    6.1167   -3.2792    0.0000 C   0  0  0  0  0  0  0  0  0  0  0  0
    5.3917   -2.0500    0.0000 C   0  0  0  0  0  0  0  0  0  0  0  0
    3.9792   -6.9750    0.0000 I   0  0  0  0  0  0  0  0  0  0  0  0
    2.5625   -3.6750    0.0000 C   0  0  0  0  0  0  0  0  0  0  0  0
    6.8250   -2.0417    0.0000 O   0  0  0  0  0  0  0  0  0  0  0  0
    8.2542   -2.0375    0.0000 C   0  0  0  0  0  0  0  0  0  0  0  0
    7.5375   -2.4500    0.0000 C   0  0  0  0  0  0  0  0  0  0  0  0
    9.1417   -3.2542    0.0000 C   0  0  0  0  0  0  0  0  0  0  0  0
    9.6792   -2.0375    0.0000 C   0  0  0  0  0  0  0  0  0  0  0  0
    2.5750   -2.0167    0.0000 C   0  0  0  0  0  0  0  0  0  0  0  0
    4.0000   -2.0750    0.0000 C   0  0  0  0  0  0  0  0  0  0  0  0
    2.5625   -4.4917    0.0000 C   0  0  0  0  0  0  0  0  0  0  0  0
    9.9750   -3.3375    0.0000 C   0  0  0  0  0  0  0  0  0  0  0  0
   10.2917   -2.5875    0.0000 C   0  0  0  0  0  0  0  0  0  0  0  0
    4.0292   -1.2417    0.0000 C   0  0  0  0  0  0  0  0  0  0  0  0
    2.6000   -1.1917    0.0000 C   0  0  0  0  0  0  0  0  0  0  0  0
    3.3292   -0.8125    0.0000 C   0  0  0  0  0  0  0  0  0  0  0  0
  2  1  2  0
  3  1  1  0
  4  1  1  0
  5 20  1  0
  6  2  1  0
  7  3  2  0
  8  4  2  0
  9  4  1  0
 10  3  1  0
 11 14  1  0
 12 16  1  0
 13  8  1  0
 14  9  2  0
 15  7  1  0
 16 10  2  0
 17 11  1  0
 18  2  1  0
 19 12  1  0
 20 21  1  0
 21 19  1  0
 22  5  1  0
 23  5  1  0
 24  6  2  0
 25  6  1  0
 26 18  1  0
 27 22  1  0
 28 23  1  0
 29 25  2  0
 30 24  1  0
 31 29  1  0
 11 13  2  0
 12 15  2  0
 30 31  2  0
 28 27  1  0
M  END