
     RDKit          2D

 18 19  0  0  0  0  0  0  0  0999 V2000
   10.7582  -23.3680    0.0000 C   0  0  0  0  0  0  0  0  0  0  0  0
   10.7582  -22.5466    0.0000 C   0  0  0  0  0  0  0  0  0  0  0  0
    9.9775  -23.6194    0.0000 O   0  0  0  0  0  0  0  0  0  0  0  0
    9.4929  -22.9573    0.0000 C   0  0  0  0  0  0  0  0  0  0  0  0
    9.9755  -22.2873    0.0000 C   0  0  0  0  0  0  0  0  0  0  0  0
    9.4874  -21.6213    0.0000 O   0  0  0  0  0  0  0  0  0  0  0  0
    8.7032  -21.8796    0.0000 C   0  0  0  0  0  0  0  0  0  0  0  0
    8.7066  -22.7053    0.0000 C   0  0  0  0  0  0  0  0  0  0  0  0
    8.0439  -23.1908    0.0000 O   0  0  0  0  0  0  0  0  0  0  0  0
    8.1331  -24.0074    0.0000 N   0  0  0  0  0  0  0  0  0  0  0  0
    8.8881  -24.3412    0.0000 O   0  0  0  0  0  0  0  0  0  0  0  0
    7.4738  -24.4957    0.0000 O   0  0  0  0  0  0  0  0  0  0  0  0
    8.9078  -23.5464    0.0000 H   0  0  0  0  0  0  0  0  0  0  0  0
   11.4242  -22.0656    0.0000 O   0  0  0  0  0  0  0  0  0  0  0  0
   10.3848  -21.5799    0.0000 H   0  0  0  0  0  0  0  0  0  0  0  0
   12.1737  -22.4018    0.0000 N   0  0  0  0  0  0  0  0  0  0  0  0
   12.8432  -21.9191    0.0000 O   0  0  0  0  0  0  0  0  0  0  0  0
   12.2609  -23.2174    0.0000 O   0  0  0  0  0  0  0  0  0  0  0  0
  1  2  1  0
  2  5  1  0
  4  3  1  0
  3  1  1  0
  4  5  1  0
  5  6  1  0
  6  7  1  0
  7  8  1  0
  8  4  1  0
  8  9  1  6
  9 10  1  0
 10 11  2  0
 10 12  1  0
  2 14  1  1
 14 16  1  0
 16 17  2  0
 16 18  1  0
  5 15  1  1
  4 13  1  1
M  CHG  4  10   1  12  -1  16   1  18  -1
M  END