
     RDKit          2D

 12 13  0  0  0  0  0  0  0  0999 V2000
   -3.0347    4.0179    0.0000 C   0  0  0  0  0  0  0  0  0  0  0  0
   -3.4472    4.7323    0.0000 C   0  0  0  0  0  0  0  0  0  0  0  0
   -4.2722    4.7323    0.0000 C   0  0  0  0  0  0  0  0  0  0  0  0
   -4.6847    4.0179    0.0000 C   0  0  0  0  0  0  0  0  0  0  0  0
   -4.2722    3.3034    0.0000 C   0  0  0  0  0  0  0  0  0  0  0  0
   -3.4472    3.3034    0.0000 C   0  0  0  0  0  0  0  0  0  0  0  0
   -2.3202    4.4304    0.0000 C   0  0  0  0  0  0  0  0  0  0  0  0
   -2.2378    3.8043    0.0000 C   0  0  0  0  0  0  0  0  0  0  0  0
   -3.6607    2.5065    0.0000 C   0  0  0  0  0  0  0  0  0  0  0  0
   -2.7327    2.8909    0.0000 N   0  0  0  0  0  0  0  0  0  0  0  0
   -2.7327    2.0659    0.0000 C   0  0  0  0  0  0  0  0  0  0  0  0
   -4.0587    4.1003    0.0000 C   0  0  0  0  0  0  0  0  0  0  0  0
  1  2  1  0
  2  3  1  0
  3  4  1  0
  4  5  1  0
  5  6  1  0
  6  1  1  0
  1  7  1  0
  1  8  1  0
  6  9  1  0
  6 10  1  0
 10 11  1  0
  5 12  1  0
  2 12  1  0
M  END