
     RDKit          2D

 10 10  0  0  0  0  0  0  0  0999 V2000
    9.6917   -2.0292    0.0000 C   0  0  0  0  0  0  0  0  0  0  0  0
   10.2042   -1.7250    0.0000 C   0  0  0  0  0  0  0  0  0  0  0  0
    9.6917   -2.6292    0.0000 C   0  0  0  0  0  0  0  0  0  0  0  0
    8.6542   -2.0292    0.0000 N   0  0  0  0  0  0  0  0  0  0  0  0
   10.2042   -1.1250    0.0000 O   0  0  0  0  0  0  0  0  0  0  0  0
    9.1667   -1.7292    0.0000 C   0  0  0  0  0  0  0  0  0  0  0  0
   10.7292   -2.0250    0.0000 O   0  0  0  0  0  0  0  0  0  0  0  0
    8.6542   -2.6292    0.0000 C   0  0  0  0  0  0  0  0  0  0  0  0
    9.1667   -2.9292    0.0000 C   0  0  0  0  0  0  0  0  0  0  0  0
   10.7292   -2.6250    0.0000 C   0  0  0  0  0  0  0  0  0  0  0  0
  2  1  1  0
  3  1  2  0
  4  6  1  0
  5  2  2  0
  6  1  1  0
  7  2  1  0
  8  4  1  0
  9  3  1  0
 10  7  1  0
  8  9  1  0
M  END