
     RDKit          2D

 19 21  0  0  0  0  0  0  0  0999 V2000
    4.9186   -1.0304    0.0000 N   0  0  0  0  0  0  0  0  0  0  0  0
    3.9137   -2.1441    0.0000 C   0  0  0  0  0  0  0  0  0  0  0  0
    2.5991   -1.5008    0.0000 C   0  0  0  0  0  0  0  0  0  0  0  0
    4.1701    0.2694    0.0000 C   0  0  0  0  0  0  0  0  0  0  0  0
    2.7025   -0.0408    0.0000 N   0  0  0  0  0  0  0  0  0  0  0  0
    4.1034   -3.1259    0.0000 O   0  0  0  0  0  0  0  0  0  0  0  0
    4.6594    1.3651    0.0000 O   0  0  0  0  0  0  0  0  0  0  0  0
    2.5959   -3.0016    0.0000 C   0  0  0  0  0  0  0  0  0  0  0  0
    1.2990   -0.7500    0.0000 C   0  0  0  0  0  0  0  0  0  0  0  0
    1.2990    0.7500    0.0000 C   0  0  0  0  0  0  0  0  0  0  0  0
    3.8934   -3.7543    0.0000 C   0  0  0  0  0  0  0  0  0  0  0  0
    1.2953   -3.7489    0.0000 C   0  0  0  0  0  0  0  0  0  0  0  0
    0.0000   -1.5000    0.0000 C   0  0  0  0  0  0  0  0  0  0  0  0
    3.8903   -5.2543    0.0000 C   0  0  0  0  0  0  0  0  0  0  0  0
    1.2922   -5.2489    0.0000 C   0  0  0  0  0  0  0  0  0  0  0  0
   -1.2990   -0.7500    0.0000 C   0  0  0  0  0  0  0  0  0  0  0  0
    0.0000    1.5000    0.0000 C   0  0  0  0  0  0  0  0  0  0  0  0
   -1.2990    0.7500    0.0000 C   0  0  0  0  0  0  0  0  0  0  0  0
    2.5897   -6.0016    0.0000 C   0  0  0  0  0  0  0  0  0  0  0  0
  2  1  1  0
  3  2  1  0
  4  1  2  0
  5  4  1  0
  6  2  2  0
  7  4  1  0
  8  3  1  0
  9  3  1  0
 10  9  2  0
 11  8  2  0
 12  8  1  0
 13  9  1  0
 14 11  1  0
 15 12  2  0
 16 13  2  0
 17 10  1  0
 18 17  2  0
 19 15  1  0
  3  5  1  0
 16 18  1  0
 14 19  2  0
M  END