
     RDKit          2D

 68 71  0  0  0  0  0  0  0  0999 V2000
   -1.9000    2.2900    0.0000 C   0  0  0  0  0  0  0  0  0  0  0  0
   -0.7100    3.2100    0.0000 O   0  0  0  0  0  0  0  0  0  0  0  0
   -1.8636    1.0906    0.0000 O   0  0  0  0  0  0  0  0  0  0  0  0
   -3.1200    3.1200    0.0000 C   0  0  0  0  0  0  0  0  0  0  0  0
   -2.6400    4.4900    0.0000 C   0  0  0  0  0  0  0  0  0  0  0  0
   -3.4600    5.5000    0.0000 C   0  0  0  0  0  0  0  0  0  0  0  0
   -4.8400    5.2900    0.0000 C   0  0  0  0  0  0  0  0  0  0  0  0
   -5.4800    3.8300    0.0000 C   0  0  0  0  0  0  0  0  0  0  0  0
   -4.5400    2.3900    0.0000 N   0  0  0  0  0  0  0  0  0  0  0  0
   -6.1000    2.2500    0.0000 C   0  0  0  0  0  0  0  0  0  0  0  0
   -6.8303    3.2022    0.0000 O   0  0  0  0  0  0  0  0  0  0  0  0
   -6.6100    0.8600    0.0000 C   0  0  0  0  0  0  0  0  0  0  0  0
   -5.7904   -0.0165    0.0000 O   0  0  0  0  0  0  0  0  0  0  0  0
   -8.0800    0.4300    0.0000 C   0  0  0  0  0  0  0  0  0  0  0  0
   -7.2300   -0.9300    0.0000 O   0  0  0  0  0  0  0  0  0  0  0  0
   -8.3982    1.5870    0.0000 O   0  0  0  0  0  0  0  0  0  0  0  0
   -9.7100    0.0100    0.0000 C   0  0  0  0  0  0  0  0  0  0  0  0
  -10.1800   -1.4400    0.0000 C   0  0  0  0  0  0  0  0  0  0  0  0
   -9.2500   -2.5000    0.0000 C   0  0  0  0  0  0  0  0  0  0  0  0
   -7.8600   -2.2400    0.0000 C   0  0  0  0  0  0  0  0  0  0  0  0
   -6.8600   -3.4400    0.0000 C   0  0  0  0  0  0  0  0  0  0  0  0
   -5.3700   -2.8300    0.0000 C   0  0  0  0  0  0  0  0  0  0  0  0
   -5.1674   -1.3437    0.0000 O   0  0  0  0  0  0  0  0  0  0  0  0
   -4.1200   -3.7800    0.0000 C   0  0  0  0  0  0  0  0  0  0  0  0
   -2.6300   -3.1700    0.0000 C   0  0  0  0  0  0  0  0  0  0  0  0
   -1.4100   -4.1500    0.0000 C   0  0  0  0  0  0  0  0  0  0  0  0
    0.1200   -3.6900    0.0000 C   0  0  0  0  0  0  0  0  0  0  0  0
    1.1300   -4.8600    0.0000 C   0  0  0  0  0  0  0  0  0  0  0  0
    2.7800   -4.7900    0.0000 C   0  0  0  0  0  0  0  0  0  0  0  0
    3.3400   -6.2300    0.0000 C   0  0  0  0  0  0  0  0  0  0  0  0
    4.8700   -6.7500    0.0000 C   0  0  0  0  0  0  0  0  0  0  0  0
    6.2500   -5.8600    0.0000 C   0  0  0  0  0  0  0  0  0  0  0  0
    6.5100   -4.2800    0.0000 C   0  0  0  0  0  0  0  0  0  0  0  0
    7.6623   -3.9451    0.0000 O   0  0  0  0  0  0  0  0  0  0  0  0
    5.5100   -3.1600    0.0000 C   0  0  0  0  0  0  0  0  0  0  0  0
    4.0188   -3.2852    0.0000 O   0  0  0  0  0  0  0  0  0  0  0  0
    6.4400   -1.8000    0.0000 C   0  0  0  0  0  0  0  0  0  0  0  0
    7.6356   -1.9025    0.0000 O   0  0  0  0  0  0  0  0  0  0  0  0
    5.8000   -0.4000    0.0000 C   0  0  0  0  0  0  0  0  0  0  0  0
    4.3600   -0.3900    0.0000 C   0  0  0  0  0  0  0  0  0  0  0  0
    3.4300    0.8000    0.0000 C   0  0  0  0  0  0  0  0  0  0  0  0
    2.0600    0.3500    0.0000 C   0  0  0  0  0  0  0  0  0  0  0  0
    1.9216   -0.8420    0.0000 O   0  0  0  0  0  0  0  0  0  0  0  0
    0.8000    1.1200    0.0000 C   0  0  0  0  0  0  0  0  0  0  0  0
    0.6400    2.7300    0.0000 C   0  0  0  0  0  0  0  0  0  0  0  0
    0.4013    4.1939    0.0000 C   0  0  0  0  0  0  0  0  0  0  0  0
   -0.9905    4.7555    0.0000 C   0  0  0  0  0  0  0  0  0  0  0  0
   -1.2011    6.2415    0.0000 C   0  0  0  0  0  0  0  0  0  0  0  0
   -2.5913    6.8048    0.0000 C   0  0  0  0  0  0  0  0  0  0  0  0
   -2.7987    8.2904    0.0000 C   0  0  0  0  0  0  0  0  0  0  0  0
   -4.1909    8.8510    0.0000 O   0  0  0  0  0  0  0  0  0  0  0  0
   -1.6158    9.2128    0.0000 C   0  0  0  0  0  0  0  0  0  0  0  0
   -1.7817   10.4012    0.0000 O   0  0  0  0  0  0  0  0  0  0  0  0
   -0.2256    8.6496    0.0000 C   0  0  0  0  0  0  0  0  0  0  0  0
   -0.0182    7.1640    0.0000 C   0  0  0  0  0  0  0  0  0  0  0  0
  -10.5321    0.8841    0.0000 C   0  0  0  0  0  0  0  0  0  0  0  0
   -4.2763   -4.9698    0.0000 C   0  0  0  0  0  0  0  0  0  0  0  0
    2.5100   -7.0967    0.0000 C   0  0  0  0  0  0  0  0  0  0  0  0
    7.2534   -6.5182    0.0000 C   0  0  0  0  0  0  0  0  0  0  0  0
    6.4521    0.6074    0.0000 C   0  0  0  0  0  0  0  0  0  0  0  0
    3.7789    1.9482    0.0000 C   0  0  0  0  0  0  0  0  0  0  0  0
    1.3463    4.9335    0.0000 C   0  0  0  0  0  0  0  0  0  0  0  0
   -6.1155   -0.6081    0.0000 C   0  0  0  0  0  0  0  0  0  0  0  0
    3.5077   -4.3709    0.0000 C   0  0  0  0  0  0  0  0  0  0  0  0
   -5.1361    8.1118    0.0000 C   0  0  0  0  0  0  0  0  0  0  0  0
    1.5595    2.3368    0.0000 H   0  0  0  0  0  0  0  0  0  0  0  0
   -8.1987   -3.1809    0.0000 H   0  0  0  0  0  0  0  0  0  0  0  0
   -2.1702    3.4329    0.0000 H   0  0  0  0  0  0  0  0  0  0  0  0
  1  2  1  0
  1  3  2  0
  1  4  1  0
 45  2  1  0
  4  5  1  0
  4  9  1  0
  5  6  1  0
  6  7  1  0
  7  8  1  0
  8  9  1  0
 10  9  1  0
 10 11  2  0
 10 12  1  0
 12 13  2  0
 14 12  1  0
 14 15  1  0
 14 16  1  1
 14 17  1  0
 20 15  1  0
 17 18  1  0
 17 56  1  1
 18 19  1  0
 19 20  1  0
 20 21  1  0
 21 22  1  0
 22 23  1  6
 22 24  1  0
 63 23  1  0
 24 25  2  0
 24 57  1  0
 25 26  1  0
 26 27  2  0
 27 28  1  0
 28 29  2  0
 29 30  1  0
 30 31  1  0
 30 58  1  6
 31 32  1  0
 32 33  1  0
 32 59  1  6
 33 34  2  0
 33 35  1  0
 35 36  1  6
 35 37  1  0
 64 36  1  0
 37 38  1  1
 37 39  1  0
 39 40  2  0
 39 60  1  0
 40 41  1  0
 41 42  1  0
 41 61  1  6
 42 43  2  0
 42 44  1  0
 44 45  1  0
 45 46  1  0
 46 47  1  0
 46 62  1  1
 48 47  1  1
 48 49  1  0
 48 55  1  0
 49 50  1  0
 50 51  1  1
 50 52  1  0
 65 51  1  0
 52 53  1  6
 52 54  1  0
 54 55  1  0
 45 66  1  1
 20 67  1  1
  4 68  1  6
M  END