
     RDKit          2D

 59 62  0  0  1  0  0  0  0  0999 V2000
    4.3400    0.9300    0.0000 O   0  0  0  0  0  0  0  0  0  0  0  0
    4.6099    3.6450    0.0000 O   0  0  0  0  0  0  0  0  0  0  0  0
    8.2076   -0.1525    0.0000 O   0  0  0  0  0  0  0  0  0  0  0  0
    6.8275   -2.1560    0.0000 O   0  0  0  0  0  0  0  0  0  0  0  0
    3.3547    4.4788    0.0000 O   0  0  0  0  0  0  0  0  0  0  0  0
    1.9207    1.3881    0.0000 O   0  0  0  0  0  0  0  0  0  0  0  0
   -2.2500    1.7900    0.0000 O   0  0  0  0  0  0  0  0  0  0  0  0
   -0.0515    0.8289    0.0000 O   0  0  0  0  0  0  0  0  0  0  0  0
   -3.6832   -2.5724    0.0000 O   0  0  0  0  0  0  0  0  0  0  0  0
   -3.0431   -5.2825    0.0000 O   0  0  0  0  0  0  0  0  0  0  0  0
   -9.5051   -3.8610    0.0000 O   0  0  0  0  0  0  0  0  0  0  0  0
  -10.8751   -1.3450    0.0000 O   0  0  0  0  0  0  0  0  0  0  0  0
    0.9900    3.5700    0.0000 N   0  0  0  0  0  0  0  0  0  0  0  0
    4.5000    2.4500    0.0000 C   0  0  0  0  0  0  0  0  0  0  0  0
    5.6200    0.1000    0.0000 C   0  0  0  0  0  0  0  0  0  0  0  0
    6.9800    0.7100    0.0000 C   0  0  0  0  0  0  0  0  0  0  0  0
    5.8600    3.0600    0.0000 C   0  0  0  0  0  0  0  0  0  0  0  0
    3.3000    3.2800    0.0000 C   0  0  0  0  0  0  0  0  0  0  0  0
    5.5000   -1.4500    0.0000 C   0  0  0  0  0  0  0  0  0  0  0  0
    7.0800    2.2400    0.0000 C   0  0  0  0  0  0  0  0  0  0  0  0
    2.0600    2.5800    0.0000 C   0  0  0  0  0  0  0  0  0  0  0  0
    4.3000   -2.4200    0.0000 C   0  0  0  0  0  0  0  0  0  0  0  0
   -0.3600    3.1800    0.0000 C   0  0  0  0  0  0  0  0  0  0  0  0
    5.9620    4.2557    0.0000 C   0  0  0  0  0  0  0  0  0  0  0  0
    1.3600    4.9600    0.0000 C   0  0  0  0  0  0  0  0  0  0  0  0
    4.5700   -3.9100    0.0000 C   0  0  0  0  0  0  0  0  0  0  0  0
   -0.7700    1.7900    0.0000 C   0  0  0  0  0  0  0  0  0  0  0  0
   -1.4000    4.1800    0.0000 C   0  0  0  0  0  0  0  0  0  0  0  0
    9.2963    0.3521    0.0000 C   0  0  0  0  0  0  0  0  0  0  0  0
    0.3400    5.9800    0.0000 C   0  0  0  0  0  0  0  0  0  0  0  0
    6.8699   -3.3553    0.0000 C   0  0  0  0  0  0  0  0  0  0  0  0
   -1.0400    5.5700    0.0000 C   0  0  0  0  0  0  0  0  0  0  0  0
   -3.0300    0.4800    0.0000 C   0  0  0  0  0  0  0  0  0  0  0  0
    3.4100   -4.8000    0.0000 C   0  0  0  0  0  0  0  0  0  0  0  0
   -2.0600   -0.7300    0.0000 C   0  0  0  0  0  0  0  0  0  0  0  0
    5.6894   -4.3423    0.0000 C   0  0  0  0  0  0  0  0  0  0  0  0
   -4.5249    0.3786    0.0000 C   0  0  0  0  0  0  0  0  0  0  0  0
    3.4100   -6.5900    0.0000 C   0  0  0  0  0  0  0  0  0  0  0  0
   -2.5600   -2.1500    0.0000 C   0  0  0  0  0  0  0  0  0  0  0  0
   -5.1867   -0.9684    0.0000 C   0  0  0  0  0  0  0  0  0  0  0  0
    1.2900   -6.0600    0.0000 C   0  0  0  0  0  0  0  0  0  0  0  0
   -6.6841   -1.0698    0.0000 C   0  0  0  0  0  0  0  0  0  0  0  0
   -0.4500   -6.6300    0.0000 C   0  0  0  0  0  0  0  0  0  0  0  0
   -1.2100   -2.9100    0.0000 C   0  0  0  0  0  0  0  0  0  0  0  0
   -1.8700   -5.0300    0.0000 C   0  0  0  0  0  0  0  0  0  0  0  0
   -0.8770   -0.5286    0.0000 C   0  0  0  0  0  0  0  0  0  0  0  0
   -5.1934    1.3752    0.0000 C   0  0  0  0  0  0  0  0  0  0  0  0
    4.1485   -7.5358    0.0000 C   0  0  0  0  0  0  0  0  0  0  0  0
   -7.3474   -2.4152    0.0000 C   0  0  0  0  0  0  0  0  0  0  0  0
   -8.8442   -2.5135    0.0000 C   0  0  0  0  0  0  0  0  0  0  0  0
   -7.5177    0.1773    0.0000 C   0  0  0  0  0  0  0  0  0  0  0  0
   -9.6777   -1.2664    0.0000 C   0  0  0  0  0  0  0  0  0  0  0  0
   -0.7848   -8.0861    0.0000 C   0  0  0  0  0  0  0  0  0  0  0  0
   -9.0144    0.0790    0.0000 C   0  0  0  0  0  0  0  0  0  0  0  0
    0.3142   -9.1081    0.0000 C   0  0  0  0  0  0  0  0  0  0  0  0
   -8.8369   -4.8577    0.0000 C   0  0  0  0  0  0  0  0  0  0  0  0
    0.0467  -10.2779    0.0000 C   0  0  0  0  0  0  0  0  0  0  0  0
    6.4378   -0.4755    0.0000 H   0  0  0  0  0  0  0  0  0  0  0  0
   -1.3266    2.9238    0.0000 H   0  0  0  0  0  0  0  0  0  0  0  0
  1 14  1  0
 15  1  1  0
 14  2  1  6
 16  3  1  6
  3 29  1  0
 19  4  1  1
  4 31  1  0
  5 18  2  0
  6 21  2  0
  7 27  1  0
  7 33  1  0
  8 27  2  0
 39  9  1  6
 10 45  2  0
 50 11  1  1
 11 56  1  0
 52 12  1  6
 13 21  1  0
 13 23  1  0
 13 25  1  0
 14 17  1  0
 14 18  1  0
 15 16  1  0
 15 19  1  0
 15 58  1  6
 16 20  1  0
 17 20  1  0
 17 24  1  6
 18 21  1  0
 19 22  1  0
 22 26  1  0
 23 27  1  0
 23 28  1  0
 25 30  1  0
 26 34  1  0
 26 36  1  1
 28 32  1  0
 30 32  1  0
 33 35  1  0
 33 37  1  1
 34 38  1  0
 35 39  1  0
 35 46  1  6
 37 40  2  0
 37 47  1  0
 38 41  2  0
 38 48  1  0
 39 44  1  0
 42 40  1  1
 41 43  1  0
 42 49  1  0
 42 51  1  0
 43 45  1  0
 43 53  1  1
 44 45  1  0
 49 50  1  0
 50 52  1  0
 51 54  1  0
 52 54  1  0
 53 55  1  0
 55 57  2  0
 23 59  1  1
M  END