
     RDKit          2D

 26 27  0  0  0  0  0  0  0  0999 V2000
   -0.8725    0.6218    0.0000 C   0  0  0  0  0  0  0  0  0  0  0  0
   -1.6261    0.2862    0.0000 N   0  0  0  0  0  0  0  0  0  0  0  0
   -2.1782    0.8993    0.0000 C   0  0  0  0  0  0  0  0  0  0  0  0
   -0.9587    1.4423    0.0000 C   0  0  0  0  0  0  0  0  0  0  0  0
   -1.7657    1.6138    0.0000 C   0  0  0  0  0  0  0  0  0  0  0  0
   -0.1580    0.2093    0.0000 C   0  0  0  0  0  0  0  0  0  0  0  0
   -0.1580   -0.6157    0.0000 O   0  0  0  0  0  0  0  0  0  0  0  0
    0.5565    0.6218    0.0000 O   0  0  0  0  0  0  0  0  0  0  0  0
    1.2710    0.2093    0.0000 C   0  0  0  0  0  0  0  0  0  0  0  0
    1.9854    0.6218    0.0000 C   0  0  0  0  0  0  0  0  0  0  0  0
    2.6999    0.2093    0.0000 C   0  0  0  0  0  0  0  0  0  0  0  0
    4.8433    0.6218    0.0000 N   0  0  0  0  0  0  0  0  0  0  0  0
    4.8433    1.4468    0.0000 C   0  0  0  0  0  0  0  0  0  0  0  0
    4.1288    1.8593    0.0000 C   0  0  0  0  0  0  0  0  0  0  0  0
    3.4144    1.4468    0.0000 C   0  0  0  0  0  0  0  0  0  0  0  0
    3.4144    0.6218    0.0000 C   0  0  0  0  0  0  0  0  0  0  0  0
    4.1288    0.2093    0.0000 C   0  0  0  0  0  0  0  0  0  0  0  0
   -1.7977   -0.5207    0.0000 C   0  0  0  0  0  0  0  0  0  0  0  0
   -1.1846   -1.0728    0.0000 O   0  0  0  0  0  0  0  0  0  0  0  0
   -2.5823   -0.7757    0.0000 C   0  0  0  0  0  0  0  0  0  0  0  0
   -3.1954   -0.2236    0.0000 O   0  0  0  0  0  0  0  0  0  0  0  0
   -2.7538   -1.5826    0.0000 C   0  0  0  0  0  0  0  0  0  0  0  0
   -3.5608   -1.4111    0.0000 C   0  0  0  0  0  0  0  0  0  0  0  0
   -1.9468   -1.7542    0.0000 C   0  0  0  0  0  0  0  0  0  0  0  0
   -2.9253   -2.3896    0.0000 C   0  0  0  0  0  0  0  0  0  0  0  0
   -3.7100   -2.6446    0.0000 C   0  0  0  0  0  0  0  0  0  0  0  0
  1  2  1  0
  1  4  1  0
  1  6  1  1
  3  2  1  0
 18  2  1  0
  5  3  1  0
  4  5  1  0
  6  7  2  0
  6  8  1  0
  9  8  1  0
  9 10  1  0
 10 11  1  0
 11 16  1  0
 13 12  2  0
 17 12  1  0
 13 14  1  0
 14 15  2  0
 16 15  1  0
 16 17  2  0
 18 19  2  0
 18 20  1  0
 20 21  2  0
 20 22  1  0
 23 22  1  0
 24 22  1  0
 25 22  1  0
 25 26  1  0
M  END