
     RDKit          2D

 24 27  0  0  0  0  0  0  0  0999 V2000
    6.2542   -5.9375    0.0000 C   0  0  0  0  0  0  0  0  0  0  0  0
    5.4875   -5.6167    0.0000 N   0  0  0  0  0  0  0  0  0  0  0  0
    6.7875   -5.3042    0.0000 C   0  0  0  0  0  0  0  0  0  0  0  0
    4.6250   -6.8292    0.0000 C   0  0  0  0  0  0  0  0  0  0  0  0
    5.1667   -7.4417    0.0000 C   0  0  0  0  0  0  0  0  0  0  0  0
    5.9875   -7.3875    0.0000 N   0  0  0  0  0  0  0  0  0  0  0  0
    6.3542   -4.6042    0.0000 N   0  0  0  0  0  0  0  0  0  0  0  0
    4.7667   -6.0125    0.0000 C   0  0  0  0  0  0  0  0  0  0  0  0
    6.4542   -6.7250    0.0000 C   0  0  0  0  0  0  0  0  0  0  0  0
    5.5542   -4.7917    0.0000 C   0  0  0  0  0  0  0  0  0  0  0  0
    7.6125   -5.3625    0.0000 C   0  0  0  0  0  0  0  0  0  0  0  0
    3.8500   -7.1167    0.0000 C   0  0  0  0  0  0  0  0  0  0  0  0
    4.1292   -5.4792    0.0000 C   0  0  0  0  0  0  0  0  0  0  0  0
    4.8542   -8.2125    0.0000 O   0  0  0  0  0  0  0  0  0  0  0  0
    8.0750   -4.6667    0.0000 O   0  0  0  0  0  0  0  0  0  0  0  0
    6.4750   -8.0417    0.0000 C   0  0  0  0  0  0  0  0  0  0  0  0
    3.2125   -6.5917    0.0000 C   0  0  0  0  0  0  0  0  0  0  0  0
    3.3500   -5.7667    0.0000 C   0  0  0  0  0  0  0  0  0  0  0  0
    7.2292   -6.9667    0.0000 C   0  0  0  0  0  0  0  0  0  0  0  0
    7.9792   -6.1042    0.0000 O   0  0  0  0  0  0  0  0  0  0  0  0
    2.4417   -6.8750    0.0000 Cl  0  0  0  0  0  0  0  0  0  0  0  0
    7.2417   -7.7792    0.0000 C   0  0  0  0  0  0  0  0  0  0  0  0
    8.8000   -6.1542    0.0000 C   0  0  0  0  0  0  0  0  0  0  0  0
    9.1667   -6.8917    0.0000 C   0  0  0  0  0  0  0  0  0  0  0  0
  2  1  1  0
  3  1  2  0
  4  8  2  0
  5  6  1  0
  6  9  1  0
  7  3  1  0
  8  2  1  0
  9  1  1  0
 10  2  1  0
 11  3  1  0
 12  4  1  0
 13  8  1  0
 14  5  2  0
 15 11  2  0
 16  6  1  0
 17 18  1  0
 18 13  2  0
 19  9  1  0
 20 11  1  0
 21 17  1  0
 22 19  1  0
 23 20  1  0
 24 23  1  0
  7 10  2  0
 16 22  1  0
  4  5  1  0
 17 12  2  0
M  END