
     RDKit          2D

 16 18  0  0  0  0  0  0  0  0999 V2000
    4.0667   -5.0125    0.0000 C   0  0  0  0  0  0  0  0  0  0  0  0
    4.7167   -5.4042    0.0000 C   0  0  0  0  0  0  0  0  0  0  0  0
    4.7167   -6.1042    0.0000 C   0  0  0  0  0  0  0  0  0  0  0  0
    4.0125   -6.4542    0.0000 C   0  0  0  0  0  0  0  0  0  0  0  0
    3.6125   -5.7250    0.0000 C   0  0  0  0  0  0  0  0  0  0  0  0
    3.3500   -5.3875    0.0000 C   0  0  0  0  0  0  0  0  0  0  0  0
    3.3500   -6.0917    0.0000 C   0  0  0  0  0  0  0  0  0  0  0  0
    5.3500   -5.1000    0.0000 C   0  0  0  0  0  0  0  0  0  0  0  0
    5.3792   -6.3792    0.0000 N   0  0  0  0  0  0  0  0  0  0  0  0
    5.8792   -5.3875    0.0000 C   0  0  0  0  0  0  0  0  0  0  0  0
    5.3500   -4.4875    0.0000 C   0  0  0  0  0  0  0  0  0  0  0  0
    5.9625   -6.0917    0.0000 C   0  0  0  0  0  0  0  0  0  0  0  0
    6.7917   -6.2792    0.0000 C   0  0  0  0  0  0  0  0  0  0  0  0
    6.4042   -5.1000    0.0000 C   0  0  0  0  0  0  0  0  0  0  0  0
    5.8792   -4.1792    0.0000 C   0  0  0  0  0  0  0  0  0  0  0  0
    6.4042   -4.4875    0.0000 C   0  0  0  0  0  0  0  0  0  0  0  0
  2  1  1  0
  3  2  1  0
  4  5  1  0
  5  1  1  0
  6  1  1  0
  7  6  1  0
  8  2  1  0
  9  3  1  0
 10  8  1  0
 11  8  2  0
 12  9  1  0
 13 12  1  0
 14 10  2  0
 15 11  1  0
 16 14  1  0
  4  7  1  0
  3  4  1  0
 15 16  2  0
M  END