
     RDKit          2D

 16 16  0  0  0  0  0  0  0  0999 V2000
    1.1066   -0.9601    0.0000 S   0  0  0  0  0  0  0  0  0  0  0  0
    1.8211   -1.3726    0.0000 O   0  0  0  0  0  0  0  0  0  0  0  0
    1.5191   -0.2456    0.0000 O   0  0  0  0  0  0  0  0  0  0  0  0
    0.6941   -1.6745    0.0000 N   0  0  0  0  0  0  0  0  0  0  0  0
   -0.3223    1.5149    0.0000 S   0  0  0  0  0  0  0  0  0  0  0  0
   -0.3223    2.3399    0.0000 O   0  0  0  0  0  0  0  0  0  0  0  0
   -1.1473    1.5149    0.0000 O   0  0  0  0  0  0  0  0  0  0  0  0
    0.5027    1.5149    0.0000 N   0  0  0  0  0  0  0  0  0  0  0  0
    0.3921   -0.5476    0.0000 C   0  0  0  0  0  0  0  0  0  0  0  0
    0.3921    0.2774    0.0000 C   0  0  0  0  0  0  0  0  0  0  0  0
   -0.3223    0.6899    0.0000 C   0  0  0  0  0  0  0  0  0  0  0  0
   -1.0368    0.2774    0.0000 C   0  0  0  0  0  0  0  0  0  0  0  0
   -1.0368   -0.5476    0.0000 C   0  0  0  0  0  0  0  0  0  0  0  0
   -0.3223   -0.9601    0.0000 C   0  0  0  0  0  0  0  0  0  0  0  0
   -1.7513    0.6899    0.0000 Cl  0  0  0  0  0  0  0  0  0  0  0  0
   -1.7513   -0.9601    0.0000 Cl  0  0  0  0  0  0  0  0  0  0  0  0
  2  1  2  0
  3  1  2  0
  4  1  1  0
  9  1  1  0
  9 14  2  0
  9 10  1  0
 13 14  1  0
 10 11  2  0
 13 16  1  0
 12 13  2  0
 11 12  1  0
 11  5  1  0
 12 15  1  0
  8  5  1  0
  7  5  2  0
  6  5  2  0
M  END