
     RDKit          2D

 19 21  0  0  0  0  0  0  0  0999 V2000
   -3.6295   -7.5881    0.0000 C   0  0  0  0  0  0  0  0  0  0  0  0
   -3.6295   -8.4132    0.0000 C   0  0  0  0  0  0  0  0  0  0  0  0
   -2.9173   -8.8215    0.0000 C   0  0  0  0  0  0  0  0  0  0  0  0
   -2.2053   -8.4132    0.0000 C   0  0  0  0  0  0  0  0  0  0  0  0
   -2.2053   -7.5881    0.0000 C   0  0  0  0  0  0  0  0  0  0  0  0
   -2.9173   -7.1714    0.0000 O   0  0  0  0  0  0  0  0  0  0  0  0
   -1.4896   -7.1777    0.0000 O   0  0  0  0  0  0  0  0  0  0  0  0
   -4.3452   -7.1777    0.0000 C   0  0  0  0  0  0  0  0  0  0  0  0
   -1.4872   -8.8256    0.0000 C   0  0  0  0  0  0  0  0  0  0  0  0
   -0.0631   -9.6572    0.0000 C   0  0  0  0  0  0  0  0  0  0  0  0
   -0.0599   -8.8311    0.0000 C   0  0  0  0  0  0  0  0  0  0  0  0
   -0.7743   -8.4131    0.0000 C   0  0  0  0  0  0  0  0  0  0  0  0
   -0.7807  -10.0651    0.0000 C   0  0  0  0  0  0  0  0  0  0  0  0
   -1.4911   -9.6548    0.0000 C   0  0  0  0  0  0  0  0  0  0  0  0
   -2.1979  -10.0627    0.0000 C   0  0  0  0  0  0  0  0  0  0  0  0
   -2.2002  -10.8826    0.0000 C   0  0  0  0  0  0  0  0  0  0  0  0
   -1.4897  -11.2929    0.0000 C   0  0  0  0  0  0  0  0  0  0  0  0
   -0.7768  -10.8834    0.0000 C   0  0  0  0  0  0  0  0  0  0  0  0
   -5.0585   -7.5923    0.0000 Br  0  0  0  0  0  0  0  0  0  0  0  0
  9 14  1  0
  2  3  1  0
  3  4  1  0
  4  5  1  0
  5  6  1  0
  9 12  2  0
 13 10  1  0
 10 11  2  0
 11 12  1  0
  4  9  1  0
 13 14  2  0
  5  7  2  0
  1  2  1  0
  1  8  2  0
  1  6  1  0
  8 19  1  0
 13 18  1  0
 14 15  1  0
 15 16  2  0
 16 17  1  0
 17 18  2  0
M  END