
     RDKit          2D

 47 51  0  0  0  0  0  0  0  0999 V2000
    2.3167    2.6000    0.0000 N   0  0  0  0  0  0  0  0  0  0  0  0
    3.0417    1.3708    0.0000 N   0  0  0  0  0  0  0  0  0  0  0  0
    2.3167    1.7833    0.0000 C   0  0  0  0  0  0  0  0  0  0  0  0
    3.7542    2.6083    0.0000 C   0  0  0  0  0  0  0  0  0  0  0  0
    3.0375    3.0208    0.0000 C   0  0  0  0  0  0  0  0  0  0  0  0
    3.7542    1.7833    0.0000 C   0  0  0  0  0  0  0  0  0  0  0  0
    3.0417    0.5458    0.0000 C   0  0  0  0  0  0  0  0  0  0  0  0
    3.7542    0.1333    0.0000 C   0  0  0  0  0  0  0  0  0  0  0  0
    9.4625    1.7875    0.0000 C   0  0  0  0  0  0  0  0  0  0  0  0
    3.7542   -0.6917    0.0000 N   0  0  0  0  0  0  0  0  0  0  0  0
    1.6125    1.3708    0.0000 S   0  0  0  0  0  0  0  0  0  0  0  0
    8.7500    1.3708    0.0000 C   0  0  0  0  0  0  0  0  0  0  0  0
    3.0375    3.8458    0.0000 O   0  0  0  0  0  0  0  0  0  0  0  0
    4.4750   -1.1042    0.0000 C   0  0  0  0  0  0  0  0  0  0  0  0
    7.3250    0.5458    0.0000 C   0  0  0  0  0  0  0  0  0  0  0  0
    6.6125    0.1250    0.0000 C   0  0  0  0  0  0  0  0  0  0  0  0
    4.4667    0.5458    0.0000 O   0  0  0  0  0  0  0  0  0  0  0  0
    3.0417   -1.1042    0.0000 C   0  0  0  0  0  0  0  0  0  0  0  0
    8.0292    1.7833    0.0000 C   0  0  0  0  0  0  0  0  0  0  0  0
    8.7542    0.5458    0.0000 C   0  0  0  0  0  0  0  0  0  0  0  0
   10.1042    2.1625    0.0000 F   0  0  0  0  0  0  0  0  0  0  0  0
   10.2667    1.4833    0.0000 F   0  0  0  0  0  0  0  0  0  0  0  0
    9.5917    2.6458    0.0000 F   0  0  0  0  0  0  0  0  0  0  0  0
    8.0375    0.1333    0.0000 C   0  0  0  0  0  0  0  0  0  0  0  0
    7.3167    1.3625    0.0000 C   0  0  0  0  0  0  0  0  0  0  0  0
    6.6125   -0.7000    0.0000 C   0  0  0  0  0  0  0  0  0  0  0  0
    5.8917    0.5375    0.0000 C   0  0  0  0  0  0  0  0  0  0  0  0
    4.5375    2.8583    0.0000 C   0  0  0  0  0  0  0  0  0  0  0  0
    5.1875   -0.6917    0.0000 C   0  0  0  0  0  0  0  0  0  0  0  0
    0.8917    1.7750    0.0000 C   0  0  0  0  0  0  0  0  0  0  0  0
    4.5375    1.5208    0.0000 C   0  0  0  0  0  0  0  0  0  0  0  0
    1.6167   -1.1042    0.0000 N   0  0  0  0  0  0  0  0  0  0  0  0
    2.3292   -0.6917    0.0000 C   0  0  0  0  0  0  0  0  0  0  0  0
   -1.2458    0.5333    0.0000 C   0  0  0  0  0  0  0  0  0  0  0  0
    0.1792    1.3583    0.0000 C   0  0  0  0  0  0  0  0  0  0  0  0
    5.9000   -1.1125    0.0000 C   0  0  0  0  0  0  0  0  0  0  0  0
    5.1792    0.1250    0.0000 C   0  0  0  0  0  0  0  0  0  0  0  0
   -1.9708    0.1208    0.0000 F   0  0  0  0  0  0  0  0  0  0  0  0
   -0.5333    0.1208    0.0000 C   0  0  0  0  0  0  0  0  0  0  0  0
   -1.2458    1.3583    0.0000 C   0  0  0  0  0  0  0  0  0  0  0  0
    0.1792    0.5333    0.0000 C   0  0  0  0  0  0  0  0  0  0  0  0
   -0.5333    1.7708    0.0000 C   0  0  0  0  0  0  0  0  0  0  0  0
    5.0167    2.1875    0.0000 C   0  0  0  0  0  0  0  0  0  0  0  0
    0.9000   -0.7000    0.0000 C   0  0  0  0  0  0  0  0  0  0  0  0
    1.6167   -1.9292    0.0000 C   0  0  0  0  0  0  0  0  0  0  0  0
    0.9000   -2.3500    0.0000 C   0  0  0  0  0  0  0  0  0  0  0  0
    0.1875   -1.1125    0.0000 C   0  0  0  0  0  0  0  0  0  0  0  0
  2  3  1  0
  3  1  2  0
  4  5  1  0
  5  1  1  0
  6  4  2  0
  7  2  1  0
  8  7  1  0
  9 12  1  0
 10  8  1  0
 11  3  1  0
 12 19  1  0
 13  5  2  0
 14 10  1  0
 15 16  1  0
 16 27  1  0
 17  8  2  0
 18 10  1  0
 19 25  2  0
 20 24  1  0
 21  9  1  0
 22  9  1  0
 23  9  1  0
 24 15  2  0
 25 15  1  0
 26 36  1  0
 27 37  2  0
 28  4  1  0
 29 14  1  0
 30 11  1  0
 31  6  1  0
 32 33  1  0
 33 18  1  0
 34 40  2  0
 35 30  1  0
 36 29  2  0
 37 29  1  0
 38 34  1  0
 39 41  2  0
 40 42  1  0
 41 35  1  0
 42 35  2  0
 43 28  1  0
 44 32  1  0
 45 32  1  0
 46 45  1  0
 47 44  1  0
  6  2  1  0
 43 31  1  0
 34 39  1  0
 16 26  2  0
 12 20  2  0
M  END