
     RDKit          2D

 43 45  0  0  0  0  0  0  0  0999 V2000
   -6.5903   -2.4293    0.0000 C   0  0  0  0  0  0  0  0  0  0  0  0
   -8.0103   -2.0488    0.0000 N   0  0  0  0  0  0  0  0  0  0  0  0
   -7.2034   -1.8773    0.0000 C   0  0  0  0  0  0  0  0  0  0  0  0
   -7.1171   -1.0568    0.0000 N   0  0  0  0  0  0  0  0  0  0  0  0
   -7.8708   -0.7213    0.0000 C   0  0  0  0  0  0  0  0  0  0  0  0
   -8.4228   -1.3344    0.0000 C   0  0  0  0  0  0  0  0  0  0  0  0
   -6.4027   -0.6443    0.0000 C   0  0  0  0  0  0  0  0  0  0  0  0
   -5.6882   -1.0568    0.0000 C   0  0  0  0  0  0  0  0  0  0  0  0
   -4.9737   -0.6443    0.0000 C   0  0  0  0  0  0  0  0  0  0  0  0
   -4.2592   -1.0568    0.0000 C   0  0  0  0  0  0  0  0  0  0  0  0
   -3.5448   -0.6443    0.0000 C   0  0  0  0  0  0  0  0  0  0  0  0
   -2.8303   -1.0568    0.0000 C   0  0  0  0  0  0  0  0  0  0  0  0
   -2.1158   -0.6443    0.0000 C   0  0  0  0  0  0  0  0  0  0  0  0
   -2.1158    0.1807    0.0000 C   0  0  0  0  0  0  0  0  0  0  0  0
   -2.8303    0.5932    0.0000 C   0  0  0  0  0  0  0  0  0  0  0  0
   -3.5448    0.1807    0.0000 C   0  0  0  0  0  0  0  0  0  0  0  0
   -1.4014    0.5932    0.0000 C   0  0  0  0  0  0  0  0  0  0  0  0
   -0.6869    0.1807    0.0000 C   0  0  0  0  0  0  0  0  0  0  0  0
   -0.6869   -0.6443    0.0000 O   0  0  0  0  0  0  0  0  0  0  0  0
    0.0276    0.5932    0.0000 N   0  0  0  0  0  0  0  0  0  0  0  0
    0.7420    0.1807    0.0000 C   0  0  0  0  0  0  0  0  0  0  0  0
    1.4565    0.5932    0.0000 C   0  0  0  0  0  0  0  0  0  0  0  0
    1.4565    1.4182    0.0000 O   0  0  0  0  0  0  0  0  0  0  0  0
    0.7420   -0.6443    0.0000 C   0  0  0  0  0  0  0  0  0  0  0  0
    1.4565   -1.0568    0.0000 O   0  0  0  0  0  0  0  0  0  0  0  0
    2.1710    0.1807    0.0000 N   0  0  0  0  0  0  0  0  0  0  0  0
    2.8855    0.5932    0.0000 C   0  0  0  0  0  0  0  0  0  0  0  0
    3.5999    0.1807    0.0000 C   0  0  0  0  0  0  0  0  0  0  0  0
    3.5999   -0.6443    0.0000 O   0  0  0  0  0  0  0  0  0  0  0  0
    2.8855    1.4182    0.0000 C   0  0  0  0  0  0  0  0  0  0  0  0
    2.1710    1.8307    0.0000 C   0  0  0  0  0  0  0  0  0  0  0  0
    2.1710    2.6557    0.0000 C   0  0  0  0  0  0  0  0  0  0  0  0
    1.4565    3.0682    0.0000 C   0  0  0  0  0  0  0  0  0  0  0  0
    1.4565    3.8932    0.0000 N   0  0  0  0  0  0  0  0  0  0  0  0
    4.3144    0.5932    0.0000 N   0  0  0  0  0  0  0  0  0  0  0  0
    5.0289    0.1807    0.0000 C   0  0  0  0  0  0  0  0  0  0  0  0
    5.7433    0.5932    0.0000 C   0  0  0  0  0  0  0  0  0  0  0  0
    6.4578    0.1807    0.0000 C   0  0  0  0  0  0  0  0  0  0  0  0
    7.1723    0.5932    0.0000 C   0  0  0  0  0  0  0  0  0  0  0  0
    7.8868    0.1807    0.0000 C   0  0  0  0  0  0  0  0  0  0  0  0
    7.8868   -0.6443    0.0000 C   0  0  0  0  0  0  0  0  0  0  0  0
    7.1723   -1.0568    0.0000 C   0  0  0  0  0  0  0  0  0  0  0  0
    6.4578   -0.6443    0.0000 C   0  0  0  0  0  0  0  0  0  0  0  0
  3  1  1  0
  3  2  2  0
  6  2  1  0
  3  4  1  0
  5  4  1  0
  7  4  1  0
  6  5  2  0
  8  7  1  0
  9  8  1  0
 10  9  1  0
 11 10  1  0
 12 11  2  0
 11 16  1  0
 13 12  1  0
 14 13  2  0
 14 15  1  0
 14 17  1  0
 16 15  2  0
 17 18  1  0
 18 19  2  0
 18 20  1  0
 21 20  1  6
 21 22  1  0
 21 24  1  0
 22 23  2  0
 22 26  1  0
 24 25  1  0
 27 26  1  1
 27 28  1  0
 27 30  1  0
 28 29  2  0
 28 35  1  0
 30 31  1  0
 32 31  1  0
 32 33  1  0
 33 34  1  0
 36 35  1  0
 36 37  1  0
 37 38  1  0
 38 39  1  0
 43 38  1  0
 40 39  1  0
 40 41  1  0
 42 41  1  0
 43 42  1  0
M  END