
     RDKit          2D

 21 23  0  0  0  0  0  0  0  0999 V2000
   15.8669  -10.7246    0.0000 N   0  0  0  0  0  0  0  0  0  0  0  0
   15.8657  -11.5516    0.0000 C   0  0  0  0  0  0  0  0  0  0  0  0
   16.5802  -11.9644    0.0000 C   0  0  0  0  0  0  0  0  0  0  0  0
   16.5784  -10.3121    0.0000 C   0  0  0  0  0  0  0  0  0  0  0  0
   17.2935  -10.7210    0.0000 C   0  0  0  0  0  0  0  0  0  0  0  0
   17.2923  -11.5491    0.0000 C   0  0  0  0  0  0  0  0  0  0  0  0
   18.0073  -10.3057    0.0000 C   0  0  0  0  0  0  0  0  0  0  0  0
   18.7245  -10.7230    0.0000 N   0  0  0  0  0  0  0  0  0  0  0  0
   18.7211  -11.5491    0.0000 C   0  0  0  0  0  0  0  0  0  0  0  0
   19.4308  -11.9629    0.0000 C   0  0  0  0  0  0  0  0  0  0  0  0
   20.1486  -11.5551    0.0000 N   0  0  0  0  0  0  0  0  0  0  0  0
   20.1521  -10.7290    0.0000 C   0  0  0  0  0  0  0  0  0  0  0  0
   19.4378  -10.3107    0.0000 C   0  0  0  0  0  0  0  0  0  0  0  0
   20.8605  -11.9714    0.0000 C   0  0  0  0  0  0  0  0  0  0  0  0
   20.8559  -12.7960    0.0000 O   0  0  0  0  0  0  0  0  0  0  0  0
   21.5769  -11.5630    0.0000 C   0  0  0  0  0  0  0  0  0  0  0  0
   22.2859  -11.9833    0.0000 N   0  0  0  0  0  0  0  0  0  0  0  0
   23.0002  -11.5785    0.0000 C   0  0  0  0  0  0  0  0  0  0  0  0
   23.0091  -10.7536    0.0000 C   0  0  0  0  0  0  0  0  0  0  0  0
   22.2974  -10.3350    0.0000 C   0  0  0  0  0  0  0  0  0  0  0  0
   21.5769  -10.7416    0.0000 C   0  0  0  0  0  0  0  0  0  0  0  0
  2  3  1  0
  8 13  1  0
  9 10  1  0
 10 11  1  0
 11 12  1  0
 12 13  1  0
  3  6  2  0
 11 14  1  0
  5  7  1  0
 14 15  2  0
  8  7  1  0
 14 16  1  0
 16 17  1  0
  8  9  1  0
  1  2  2  0
  5  4  2  0
  4  1  1  0
  5  6  1  0
 16 21  1  0
 17 18  1  0
 18 19  1  0
 19 20  1  0
 20 21  1  0
M  END