
     RDKit          2D

 25 27  0  0  0  0  0  0  0  0999 V2000
   -4.9815    2.3432    0.0000 C   0  0  0  0  0  0  0  0  0  0  0  0
   -4.6460    1.5895    0.0000 C   0  0  0  0  0  0  0  0  0  0  0  0
   -3.8390    1.4180    0.0000 C   0  0  0  0  0  0  0  0  0  0  0  0
   -3.7528    0.5975    0.0000 C   0  0  0  0  0  0  0  0  0  0  0  0
   -4.5065    0.2620    0.0000 O   0  0  0  0  0  0  0  0  0  0  0  0
   -5.0585    0.8751    0.0000 N   0  0  0  0  0  0  0  0  0  0  0  0
   -3.0383    0.1850    0.0000 C   0  0  0  0  0  0  0  0  0  0  0  0
   -2.3238    0.5975    0.0000 C   0  0  0  0  0  0  0  0  0  0  0  0
   -1.6094    0.1850    0.0000 C   0  0  0  0  0  0  0  0  0  0  0  0
   -0.8949    0.5975    0.0000 C   0  0  0  0  0  0  0  0  0  0  0  0
   -0.1804    0.1850    0.0000 C   0  0  0  0  0  0  0  0  0  0  0  0
    0.5340    0.5975    0.0000 O   0  0  0  0  0  0  0  0  0  0  0  0
    1.2485    0.1850    0.0000 C   0  0  0  0  0  0  0  0  0  0  0  0
    1.9630    0.5975    0.0000 C   0  0  0  0  0  0  0  0  0  0  0  0
    1.9630    1.4225    0.0000 Cl  0  0  0  0  0  0  0  0  0  0  0  0
    2.6775    0.1850    0.0000 C   0  0  0  0  0  0  0  0  0  0  0  0
    2.6775   -0.6400    0.0000 C   0  0  0  0  0  0  0  0  0  0  0  0
    1.9630   -1.0525    0.0000 C   0  0  0  0  0  0  0  0  0  0  0  0
    1.2485   -0.6400    0.0000 C   0  0  0  0  0  0  0  0  0  0  0  0
    0.5340   -1.0525    0.0000 Cl  0  0  0  0  0  0  0  0  0  0  0  0
    3.3919   -1.0525    0.0000 C   0  0  0  0  0  0  0  0  0  0  0  0
    4.1456   -0.7169    0.0000 N   0  0  0  0  0  0  0  0  0  0  0  0
    4.6976   -1.3300    0.0000 C   0  0  0  0  0  0  0  0  0  0  0  0
    4.2851   -2.0445    0.0000 C   0  0  0  0  0  0  0  0  0  0  0  0
    3.4782   -1.8730    0.0000 O   0  0  0  0  0  0  0  0  0  0  0  0
  2  1  1  0
  2  3  1  0
  2  6  2  0
  3  4  2  0
  4  5  1  0
  7  4  1  0
  6  5  1  0
  7  8  1  0
  8  9  1  0
  9 10  1  0
 10 11  1  0
 11 12  1  0
 13 12  1  0
 13 14  2  0
 13 19  1  0
 14 15  1  0
 14 16  1  0
 16 17  2  0
 17 18  1  0
 21 17  1  0
 18 19  2  0
 19 20  1  0
 21 22  2  0
 21 25  1  0
 23 22  1  0
 23 24  1  0
 24 25  1  0
M  END