
     RDKit          2D

 14 16  0  0  0  0  0  0  0  0999 V2000
   -2.5023   -2.3666    0.0000 C   0  0  0  0  0  0  0  0  0  0  0  0
   -2.9675   -1.8536    0.0000 C   0  0  0  0  0  0  0  0  0  0  0  0
   -3.1751   -1.1617    0.0000 C   0  0  0  0  0  0  0  0  0  0  0  0
   -2.6126   -1.5703    0.0000 C   0  0  0  0  0  0  0  0  0  0  0  0
   -3.9279   -1.0639    0.0000 N   0  0  0  0  0  0  0  0  0  0  0  0
   -2.5392   -0.6043    0.0000 C   0  0  0  0  0  0  0  0  0  0  0  0
   -2.0793   -1.0524    0.0000 C   0  0  0  0  0  0  0  0  0  0  0  0
   -3.2022    1.4815    0.0000 N   0  0  0  0  0  0  0  0  0  0  0  0
   -3.2248    0.6514    0.0000 C   0  0  0  0  0  0  0  0  0  0  0  0
   -2.5188    0.2246    0.0000 C   0  0  0  0  0  0  0  0  0  0  0  0
   -1.7897    0.6212    0.0000 C   0  0  0  0  0  0  0  0  0  0  0  0
   -1.7702    1.4566    0.0000 C   0  0  0  0  0  0  0  0  0  0  0  0
   -2.4836    1.8770    0.0000 C   0  0  0  0  0  0  0  0  0  0  0  0
   -2.4635    2.7038    0.0000 Cl  0  0  0  0  0  0  0  0  0  0  0  0
  1  2  1  0
  2  3  1  0
  4  1  1  0
  4  5  1  0
  5  3  1  0
  3  6  1  0
  6  7  1  0
  4  7  1  0
  8  9  2  0
  9 10  1  0
 10 11  2  0
 11 12  1  0
 12 13  2  0
 13  8  1  0
 13 14  1  0
  6 10  1  0
M  END