
     RDKit          2D

 18 19  0  0  0  0  0  0  0  0999 V2000
    6.6875   -5.1417    0.0000 C   0  0  0  0  0  0  0  0  0  0  0  0
    7.2042   -5.4375    0.0000 C   0  0  0  0  0  0  0  0  0  0  0  0
    7.7250   -5.1375    0.0000 C   0  0  0  0  0  0  0  0  0  0  0  0
    6.1667   -5.4417    0.0000 C   0  0  0  0  0  0  0  0  0  0  0  0
    7.7292   -4.5292    0.0000 C   0  0  0  0  0  0  0  0  0  0  0  0
    5.6500   -5.1417    0.0000 C   0  0  0  0  0  0  0  0  0  0  0  0
    8.2417   -5.4375    0.0000 C   0  0  0  0  0  0  0  0  0  0  0  0
    6.1667   -6.0500    0.0000 C   0  0  0  0  0  0  0  0  0  0  0  0
    5.1292   -6.0500    0.0000 C   0  0  0  0  0  0  0  0  0  0  0  0
    8.7625   -4.5292    0.0000 C   0  0  0  0  0  0  0  0  0  0  0  0
    5.1292   -5.4500    0.0000 C   0  0  0  0  0  0  0  0  0  0  0  0
    8.7667   -5.1375    0.0000 C   0  0  0  0  0  0  0  0  0  0  0  0
    5.6500   -6.3500    0.0000 C   0  0  0  0  0  0  0  0  0  0  0  0
    8.2417   -4.2292    0.0000 C   0  0  0  0  0  0  0  0  0  0  0  0
    6.6792   -4.5417    0.0000 C   0  0  0  0  0  0  0  0  0  0  0  0
    7.2125   -6.0375    0.0000 C   0  0  0  0  0  0  0  0  0  0  0  0
    4.6125   -6.3500    0.0000 O   0  0  0  0  0  0  0  0  0  0  0  0
    9.2792   -4.2250    0.0000 O   0  0  0  0  0  0  0  0  0  0  0  0
  2  1  2  0
  3  2  1  0
  4  1  1  0
  5  3  2  0
  6  4  2  0
  7  3  1  0
  8  4  1  0
  9 13  1  0
 10 12  1  0
 11  6  1  0
 12  7  2  0
 13  8  2  0
 14  5  1  0
 15  1  1  0
 16  2  1  0
 17  9  1  0
 18 10  1  0
  9 11  2  0
 10 14  2  0
M  END