
     RDKit          2D

 29 30  0  0  0  0  0  0  0  0999 V2000
    5.1984   -2.7012    0.0000 C   0  0  0  0  0  0  0  0  0  0  0  0
    5.1988   -1.5012    0.0000 C   0  0  0  0  0  0  0  0  0  0  0  0
    4.1594   -2.1011    0.0000 O   0  0  0  0  0  0  0  0  0  0  0  0
    3.8990   -0.7508    0.0000 C   0  0  0  0  0  0  0  0  0  0  0  0
    2.5988   -1.5004    0.0000 S   0  0  0  0  0  0  0  0  0  0  0  0
    2.5984   -2.7004    0.0000 O   0  0  0  0  0  0  0  0  0  0  0  0
    3.6377   -2.1009    0.0000 O   0  0  0  0  0  0  0  0  0  0  0  0
    1.2990   -0.7500    0.0000 C   0  0  0  0  0  0  0  0  0  0  0  0
    1.2990    0.7500    0.0000 C   0  0  0  0  0  0  0  0  0  0  0  0
    0.0000    1.5000    0.0000 C   0  0  0  0  0  0  0  0  0  0  0  0
   -1.2990    0.7500    0.0000 C   0  0  0  0  0  0  0  0  0  0  0  0
   -2.3383    1.3500    0.0000 F   0  0  0  0  0  0  0  0  0  0  0  0
   -1.2990   -0.7500    0.0000 C   0  0  0  0  0  0  0  0  0  0  0  0
    0.0000   -1.5000    0.0000 C   0  0  0  0  0  0  0  0  0  0  0  0
    6.4990   -0.7516    0.0000 C   0  0  0  0  0  0  0  0  0  0  0  0
    6.4994    0.4484    0.0000 O   0  0  0  0  0  0  0  0  0  0  0  0
    7.7988   -1.5020    0.0000 N   0  0  0  0  0  0  0  0  0  0  0  0
    9.0990   -0.7525    0.0000 C   0  0  0  0  0  0  0  0  0  0  0  0
   10.3991   -1.5006    0.0000 C   0  0  0  0  0  0  0  0  0  0  0  0
   11.6971   -0.7487    0.0000 C   0  0  0  0  0  0  0  0  0  0  0  0
   11.6950    0.7512    0.0000 C   0  0  0  0  0  0  0  0  0  0  0  0
   12.9937    1.5035    0.0000 C   0  0  0  0  0  0  0  0  0  0  0  0
   14.0321    2.1049    0.0000 N   0  0  0  0  0  0  0  0  0  0  0  0
   10.3949    1.4994    0.0000 C   0  0  0  0  0  0  0  0  0  0  0  0
    9.0969    0.7476    0.0000 C   0  0  0  0  0  0  0  0  0  0  0  0
   10.3928    3.0003    0.0000 C   0  0  0  0  0  0  0  0  0  0  0  0
   11.4308    3.6024    0.0000 F   0  0  0  0  0  0  0  0  0  0  0  0
    9.3526    3.5985    0.0000 F   0  0  0  0  0  0  0  0  0  0  0  0
   10.3906    4.2002    0.0000 F   0  0  0  0  0  0  0  0  0  0  0  0
  1  2  1  0
  2  3  1  0
  2  4  1  0
  4  5  1  0
  5  6  2  0
  5  7  2  0
  5  8  1  0
  8  9  2  0
  9 10  1  0
 10 11  2  0
 11 12  1  0
 11 13  1  0
 13 14  2  0
 14  8  1  0
  2 15  1  0
 15 16  2  0
 15 17  1  0
 17 18  1  0
 18 19  2  0
 19 20  1  0
 20 21  2  0
 21 22  1  0
 22 23  3  0
 21 24  1  0
 24 25  2  0
 25 18  1  0
 24 26  1  0
 26 27  1  0
 26 28  1  0
 26 29  1  0
M  END