
     RDKit          2D

 27 27  0  0  1  0  0  0  0  0999 V2000
    0.0792   -2.0667    0.0000 C   0  0  0  0  0  0  0  0  0  0  0  0
    0.6792   -2.8375    0.0000 C   0  0  0  0  0  0  0  0  0  0  0  0
   -0.2583   -2.5667    0.0000 C   0  0  0  0  0  0  0  0  0  0  0  0
    0.6542   -2.2292    0.0000 C   0  0  0  0  0  0  0  0  0  0  0  0
    0.1167   -3.0417    0.0000 C   0  0  0  0  0  0  0  0  0  0  0  0
    1.1750   -3.1750    0.0000 C   0  0  0  0  0  0  0  0  0  0  0  0
    4.3292   -2.1167    0.0000 C   0  0  0  0  0  0  0  0  0  0  0  0
   -0.1250   -1.5042    0.0000 O   0  0  0  0  0  0  0  0  0  0  0  0
    1.7167   -2.9042    0.0000 C   0  0  0  0  0  0  0  0  0  0  0  0
    4.3375   -2.7167    0.0000 O   0  0  0  0  0  0  0  0  0  0  0  0
    2.1542   -1.7167    0.0000 C   0  0  0  0  0  0  0  0  0  0  0  0
    2.7500   -1.7250    0.0000 C   0  0  0  0  0  0  0  0  0  0  0  0
    2.7542   -2.9792    0.0000 C   0  0  0  0  0  0  0  0  0  0  0  0
   -0.0458   -3.6167    0.0000 O   0  0  0  0  0  0  0  0  0  0  0  0
    4.8417   -1.8125    0.0000 O   0  0  0  0  0  0  0  0  0  0  0  0
    2.8000   -3.5792    0.0000 O   0  0  0  0  0  0  0  0  0  0  0  0
    2.2125   -3.2500    0.0000 C   0  0  0  0  0  0  0  0  0  0  0  0
    1.1292   -1.8792    0.0000 C   0  0  0  0  0  0  0  0  0  0  0  0
    3.8125   -1.8167    0.0000 C   0  0  0  0  0  0  0  0  0  0  0  0
    1.6875   -2.0917    0.0000 C   0  0  0  0  0  0  0  0  0  0  0  0
    3.2875   -2.1167    0.0000 C   0  0  0  0  0  0  0  0  0  0  0  0
    3.2500   -3.3125    0.0000 C   0  0  0  0  0  0  0  0  0  0  0  0
    2.8542   -2.3917    0.0000 C   0  0  0  0  0  0  0  0  0  0  0  0
    5.4292   -1.9292    0.0000 C   0  0  0  0  0  0  0  0  0  0  0  0
    3.7917   -3.0417    0.0000 C   0  0  0  0  0  0  0  0  0  0  0  0
    4.2875   -3.3917    0.0000 C   0  0  0  0  0  0  0  0  0  0  0  0
    4.8292   -3.1167    0.0000 C   0  0  0  0  0  0  0  0  0  0  0  0
  2  4  1  0
  3  1  1  0
  4  1  1  0
  5  3  1  0
  2  6  1  1
  7 19  1  0
  8  1  2  0
  9  6  2  0
 10  7  2  0
 11 20  1  0
 12 11  2  0
 13 17  1  0
  5 14  1  6
 15  7  1  0
 13 16  1  0
 17  9  1  0
  4 18  1  6
 19 21  1  0
 20 18  1  0
 21 12  1  0
 22 13  1  0
 23 13  1  0
 24 15  1  0
 25 22  1  0
 26 25  1  0
 27 26  1  0
  5  2  1  0
M  END