
     RDKit          2D

 13 14  0  0  0  0  0  0  0  0999 V2000
    5.0417   -4.2417    0.0000 C   0  0  0  0  0  0  0  0  0  0  0  0
    4.7042   -4.9292    0.0000 C   0  0  0  0  0  0  0  0  0  0  0  0
    4.4000   -3.8542    0.0000 C   0  0  0  0  0  0  0  0  0  0  0  0
    4.1000   -4.6125    0.0000 C   0  0  0  0  0  0  0  0  0  0  0  0
    4.2250   -3.1667    0.0000 C   0  0  0  0  0  0  0  0  0  0  0  0
    5.4292   -3.5750    0.0000 N   0  0  0  0  0  0  0  0  0  0  0  0
    3.7042   -4.2292    0.0000 C   0  0  0  0  0  0  0  0  0  0  0  0
    3.4000   -4.8667    0.0000 C   0  0  0  0  0  0  0  0  0  0  0  0
    5.5875   -4.7792    0.0000 C   0  0  0  0  0  0  0  0  0  0  0  0
    4.7000   -5.7542    0.0000 C   0  0  0  0  0  0  0  0  0  0  0  0
    5.4167   -5.3417    0.0000 C   0  0  0  0  0  0  0  0  0  0  0  0
    5.0417   -2.9042    0.0000 C   0  0  0  0  0  0  0  0  0  0  0  0
    6.1917   -3.5667    0.0000 C   0  0  0  0  0  0  0  0  0  0  0  0
  2  1  1  0
  3  1  1  0
  4  2  1  0
  5  3  1  0
  6  1  1  0
  7  3  1  0
  8  7  1  0
  9  1  1  0
 10  2  1  0
 11  2  1  0
 12  6  1  0
 13  6  1  0
  4  5  1  0
  8  4  1  0
M  END