
     RDKit          2D

 27 29  0  0  0  0  0  0  0  0999 V2000
    3.8875   -2.2542    0.0000 N   0  0  0  0  0  0  0  0  0  0  0  0
   -3.2625   -2.3000    0.0000 S   0  0  0  0  0  0  0  0  0  0  0  0
   -2.5458   -1.0542    0.0000 C   0  0  0  0  0  0  0  0  0  0  0  0
    0.3042   -1.0417    0.0000 C   0  0  0  0  0  0  0  0  0  0  0  0
   -3.2625   -0.6417    0.0000 C   0  0  0  0  0  0  0  0  0  0  0  0
   -2.5458   -1.8792    0.0000 C   0  0  0  0  0  0  0  0  0  0  0  0
   -3.9750   -1.8875    0.0000 C   0  0  0  0  0  0  0  0  0  0  0  0
    3.1667   -1.8500    0.0000 C   0  0  0  0  0  0  0  0  0  0  0  0
   -0.4083   -0.6292    0.0000 N   0  0  0  0  0  0  0  0  0  0  0  0
   -3.9750   -1.0625    0.0000 C   0  0  0  0  0  0  0  0  0  0  0  0
    1.0167   -0.6250    0.0000 N   0  0  0  0  0  0  0  0  0  0  0  0
    3.8917   -3.0792    0.0000 O   0  0  0  0  0  0  0  0  0  0  0  0
    0.3125   -1.8667    0.0000 S   0  0  0  0  0  0  0  0  0  0  0  0
    4.6000   -1.8417    0.0000 O   0  0  0  0  0  0  0  0  0  0  0  0
   -1.8458   -0.6417    0.0000 C   0  0  0  0  0  0  0  0  0  0  0  0
   -1.1208   -1.0500    0.0000 C   0  0  0  0  0  0  0  0  0  0  0  0
   -1.8333   -2.2917    0.0000 C   0  0  0  0  0  0  0  0  0  0  0  0
    3.1542   -1.0167    0.0000 C   0  0  0  0  0  0  0  0  0  0  0  0
    2.4542   -2.2667    0.0000 C   0  0  0  0  0  0  0  0  0  0  0  0
    1.7375   -1.0292    0.0000 C   0  0  0  0  0  0  0  0  0  0  0  0
   -1.1208   -1.8792    0.0000 C   0  0  0  0  0  0  0  0  0  0  0  0
    2.4417   -0.6167    0.0000 C   0  0  0  0  0  0  0  0  0  0  0  0
    1.7375   -1.8542    0.0000 C   0  0  0  0  0  0  0  0  0  0  0  0
   -2.6833   -0.0542    0.0000 C   0  0  0  0  0  0  0  0  0  0  0  0
   -3.8500   -0.0542    0.0000 C   0  0  0  0  0  0  0  0  0  0  0  0
   -4.6958   -1.4750    0.0000 C   0  0  0  0  0  0  0  0  0  0  0  0
   -4.6958   -2.3000    0.0000 C   0  0  0  0  0  0  0  0  0  0  0  0
  2  6  1  0
  3 15  2  0
  4 11  2  0
  5  3  1  0
  6 17  2  0
  7  2  1  0
  8  1  1  0
  9  4  1  0
 10  5  1  0
 11 20  1  0
 12  1  1  0
 13  4  1  0
 14  1  2  0
 15 16  1  0
 16  9  1  0
 17 21  1  0
 18  8  2  0
 19  8  1  0
 20 23  1  0
 21 16  2  0
 22 18  1  0
 23 19  2  0
 24  5  1  0
 25  5  1  0
 26  7  1  0
 27  7  1  0
 22 20  2  0
  3  6  1  0
 10  7  1  0
M  CHG  2   1   1  12  -1
M  END