
     RDKit          2D

 28 31  0  0  0  0  0  0  0  0999 V2000
    4.5792   -3.9542    0.0000 N   0  0  0  0  0  0  0  0  0  0  0  0
    5.2875   -2.7042    0.0000 C   0  0  0  0  0  0  0  0  0  0  0  0
    3.8625   -3.5417    0.0000 C   0  0  0  0  0  0  0  0  0  0  0  0
    3.8625   -2.7167    0.0000 C   0  0  0  0  0  0  0  0  0  0  0  0
    3.1417   -3.9542    0.0000 C   0  0  0  0  0  0  0  0  0  0  0  0
    5.2917   -3.5375    0.0000 C   0  0  0  0  0  0  0  0  0  0  0  0
    4.5667   -2.3000    0.0000 C   0  0  0  0  0  0  0  0  0  0  0  0
    2.4292   -3.5417    0.0000 C   0  0  0  0  0  0  0  0  0  0  0  0
    1.7167   -3.9542    0.0000 N   0  0  0  0  0  0  0  0  0  0  0  0
    2.4292   -2.7167    0.0000 C   0  0  0  0  0  0  0  0  0  0  0  0
    4.5792   -4.7792    0.0000 C   0  0  0  0  0  0  0  0  0  0  0  0
    3.1417   -2.3042    0.0000 C   0  0  0  0  0  0  0  0  0  0  0  0
    6.0000   -2.2917    0.0000 C   0  0  0  0  0  0  0  0  0  0  0  0
    4.1667   -5.4917    0.0000 C   0  0  0  0  0  0  0  0  0  0  0  0
    4.9917   -5.4917    0.0000 C   0  0  0  0  0  0  0  0  0  0  0  0
    0.9667   -3.6250    0.0000 C   0  0  0  0  0  0  0  0  0  0  0  0
    1.6292   -4.7792    0.0000 C   0  0  0  0  0  0  0  0  0  0  0  0
    4.5667   -1.4750    0.0000 O   0  0  0  0  0  0  0  0  0  0  0  0
    3.1500   -4.7792    0.0000 F   0  0  0  0  0  0  0  0  0  0  0  0
    5.9917   -1.4667    0.0000 O   0  0  0  0  0  0  0  0  0  0  0  0
    0.4167   -4.2375    0.0000 C   0  0  0  0  0  0  0  0  0  0  0  0
    1.7167   -2.3042    0.0000 F   0  0  0  0  0  0  0  0  0  0  0  0
    6.7167   -2.7000    0.0000 O   0  0  0  0  0  0  0  0  0  0  0  0
    0.8250   -4.9542    0.0000 C   0  0  0  0  0  0  0  0  0  0  0  0
   -0.8958   -4.8167    0.0000 N   0  0  0  0  0  0  0  0  0  0  0  0
   -0.4083   -4.1500    0.0000 C   0  0  0  0  0  0  0  0  0  0  0  0
   -1.7125   -4.7292    0.0000 C   0  0  0  0  0  0  0  0  0  0  0  0
   -2.1958   -5.4000    0.0000 C   0  0  0  0  0  0  0  0  0  0  0  0
  2  6  2  0
  3  1  1  0
  4  3  1  0
  5  3  2  0
  6  1  1  0
  7  2  1  0
  8  5  1  0
  9  8  1  0
 10  8  2  0
 11  1  1  0
 12  4  2  0
 13  2  1  0
 14 11  1  0
 15 11  1  0
 16  9  1  0
 17  9  1  0
 18  7  2  0
 19  5  1  0
 20 13  2  0
 21 16  1  0
 22 10  1  0
 23 13  1  0
 24 17  1  0
 25 26  1  0
 26 21  1  0
 27 25  1  0
 28 27  1  0
 15 14  1  0
  7  4  1  0
 12 10  1  0
 21 24  1  0
M  END