
     RDKit          2D

 23 25  0  0  0  0  0  0  0  0999 V2000
   11.0152   -3.8625    0.0000 C   0  0  0  0  0  0  0  0  0  0  0  0
   11.0141   -4.6898    0.0000 C   0  0  0  0  0  0  0  0  0  0  0  0
   11.7289   -5.1027    0.0000 C   0  0  0  0  0  0  0  0  0  0  0  0
   11.7271   -3.4497    0.0000 C   0  0  0  0  0  0  0  0  0  0  0  0
   12.4425   -3.8588    0.0000 C   0  0  0  0  0  0  0  0  0  0  0  0
   12.4413   -4.6873    0.0000 C   0  0  0  0  0  0  0  0  0  0  0  0
   13.1543   -5.1003    0.0000 C   0  0  0  0  0  0  0  0  0  0  0  0
   13.8729   -4.6893    0.0000 C   0  0  0  0  0  0  0  0  0  0  0  0
   13.8741   -3.8608    0.0000 C   0  0  0  0  0  0  0  0  0  0  0  0
   13.1566   -3.4433    0.0000 N   0  0  0  0  0  0  0  0  0  0  0  0
   13.1566   -2.6183    0.0000 C   0  0  0  0  0  0  0  0  0  0  0  0
   13.8711   -2.2058    0.0000 C   0  0  0  0  0  0  0  0  0  0  0  0
   13.1519   -5.9253    0.0000 O   0  0  0  0  0  0  0  0  0  0  0  0
   14.5862   -5.1038    0.0000 C   0  0  0  0  0  0  0  0  0  0  0  0
   14.5839   -5.9288    0.0000 O   0  0  0  0  0  0  0  0  0  0  0  0
   15.3019   -4.6933    0.0000 O   0  0  0  0  0  0  0  0  0  0  0  0
   10.2993   -5.1018    0.0000 F   0  0  0  0  0  0  0  0  0  0  0  0
   10.3007   -3.4501    0.0000 N   0  0  0  0  0  0  0  0  0  0  0  0
   10.2986   -2.6243    0.0000 C   0  0  0  0  0  0  0  0  0  0  0  0
    9.5882   -2.2121    0.0000 C   0  0  0  0  0  0  0  0  0  0  0  0
    8.8713   -2.6212    0.0000 N   0  0  0  0  0  0  0  0  0  0  0  0
    8.8696   -3.4472    0.0000 C   0  0  0  0  0  0  0  0  0  0  0  0
    9.5846   -3.8640    0.0000 C   0  0  0  0  0  0  0  0  0  0  0  0
 10 11  1  0
 11 12  1  0
  2  3  1  0
  7 13  2  0
  3  6  2  0
  8 14  1  0
  1  2  2  0
 14 15  1  0
  5  4  2  0
 14 16  2  0
  4  1  1  0
  2 17  1  0
  5 10  1  0
  1 18  1  0
 18 19  1  0
  6  7  1  0
  7  8  1  0
  8  9  2  0
  9 10  1  0
  5  6  1  0
 18 23  1  0
 19 20  1  0
 20 21  1  0
 21 22  1  0
 22 23  1  0
M  END