
     RDKit          2D

 16 18  0  0  0  0  0  0  0  0999 V2000
    2.4942   -0.0844    0.0000 O   0  0  0  0  0  0  0  0  0  0  0  0
    5.3276   -0.8394    0.0000 N   0  0  0  0  0  0  0  0  0  0  0  0
    7.3541    0.0871    0.0000 N   0  0  0  0  0  0  0  0  0  0  0  0
    5.7401    0.4302    0.0000 C   0  0  0  0  0  0  0  0  0  0  0  0
    4.9151    0.4302    0.0000 C   0  0  0  0  0  0  0  0  0  0  0  0
    5.9951   -0.3545    0.0000 C   0  0  0  0  0  0  0  0  0  0  0  0
    4.6602   -0.3545    0.0000 C   0  0  0  0  0  0  0  0  0  0  0  0
    6.8021   -0.5260    0.0000 C   0  0  0  0  0  0  0  0  0  0  0  0
    3.8532   -0.5260    0.0000 C   0  0  0  0  0  0  0  0  0  0  0  0
    4.3631    1.0432    0.0000 C   0  0  0  0  0  0  0  0  0  0  0  0
    6.2922    1.0432    0.0000 C   0  0  0  0  0  0  0  0  0  0  0  0
    3.3012    0.0871    0.0000 C   0  0  0  0  0  0  0  0  0  0  0  0
    3.5561    0.8717    0.0000 C   0  0  0  0  0  0  0  0  0  0  0  0
    7.0991    0.8717    0.0000 C   0  0  0  0  0  0  0  0  0  0  0  0
    7.0570   -1.3106    0.0000 C   0  0  0  0  0  0  0  0  0  0  0  0
    2.2393   -0.8691    0.0000 C   0  0  0  0  0  0  0  0  0  0  0  0
  1 12  1  0
  1 16  1  0
  2  6  1  0
  2  7  1  0
  3  8  1  0
  3 14  2  0
  4  5  1  0
  4  6  1  0
  4 11  2  0
  5  7  1  0
  5 10  2  0
  6  8  2  0
  7  9  2  0
  8 15  1  0
  9 12  1  0
 10 13  1  0
 11 14  1  0
 12 13  2  0
M  END