
     RDKit          2D

 15 17  0  0  0  0  0  0  0  0999 V2000
    4.4044   -0.9145    0.0000 N   0  0  0  0  0  0  0  0  0  0  0  0
    2.1214    0.4825    0.0000 N   0  0  0  0  0  0  0  0  0  0  0  0
    4.7952    0.3619    0.0000 C   0  0  0  0  0  0  0  0  0  0  0  0
    3.9703    0.3478    0.0000 C   0  0  0  0  0  0  0  0  0  0  0  0
    5.0635   -0.4183    0.0000 C   0  0  0  0  0  0  0  0  0  0  0  0
    3.7288   -0.4410    0.0000 C   0  0  0  0  0  0  0  0  0  0  0  0
    5.3367    0.9843    0.0000 C   0  0  0  0  0  0  0  0  0  0  0  0
    5.8732   -0.5760    0.0000 C   0  0  0  0  0  0  0  0  0  0  0  0
    3.5041    1.0285    0.0000 C   0  0  0  0  0  0  0  0  0  0  0  0
    2.9614   -0.7441    0.0000 C   0  0  0  0  0  0  0  0  0  0  0  0
    4.4185   -1.7394    0.0000 C   0  0  0  0  0  0  0  0  0  0  0  0
    6.1464    0.8266    0.0000 C   0  0  0  0  0  0  0  0  0  0  0  0
    6.4147    0.0464    0.0000 C   0  0  0  0  0  0  0  0  0  0  0  0
    2.6813    1.0884    0.0000 C   0  0  0  0  0  0  0  0  0  0  0  0
    2.2461   -0.3331    0.0000 C   0  0  0  0  0  0  0  0  0  0  0  0
  1  5  1  0
  1  6  1  0
  1 11  1  0
  2 14  1  0
  2 15  1  0
  3  4  1  0
  3  5  2  0
  3  7  1  0
  4  6  2  0
  4  9  1  0
  5  8  1  0
  6 10  1  0
  7 12  2  0
  8 13  2  0
  9 14  1  0
 10 15  1  0
 12 13  1  0
M  END