
     RDKit          2D

 13 15  0  0  0  0  0  0  0  0999 V2000
   -1.4750    0.5500    0.0000 N   0  0  0  0  0  0  0  0  0  0  0  0
   -1.0125    1.2208    0.0000 C   0  0  0  0  0  0  0  0  0  0  0  0
   -1.5083    1.8833    0.0000 C   0  0  0  0  0  0  0  0  0  0  0  0
   -2.2833    1.6083    0.0000 C   0  0  0  0  0  0  0  0  0  0  0  0
   -2.2708    0.7833    0.0000 C   0  0  0  0  0  0  0  0  0  0  0  0
    0.1417    2.0833    0.0000 N   0  0  0  0  0  0  0  0  0  0  0  0
   -0.1875    1.3208    0.0000 C   0  0  0  0  0  0  0  0  0  0  0  0
   -1.1833    2.6458    0.0000 C   0  0  0  0  0  0  0  0  0  0  0  0
   -3.0083    2.0000    0.0000 C   0  0  0  0  0  0  0  0  0  0  0  0
   -2.9708    0.3583    0.0000 C   0  0  0  0  0  0  0  0  0  0  0  0
   -0.3708    2.7458    0.0000 C   0  0  0  0  0  0  0  0  0  0  0  0
   -3.7125    1.5708    0.0000 C   0  0  0  0  0  0  0  0  0  0  0  0
   -3.7000    0.7583    0.0000 C   0  0  0  0  0  0  0  0  0  0  0  0
  2  1  1  0
  3  2  2  0
  4  5  1  0
  5  1  1  0
  6  7  1  0
  7  2  1  0
  8  3  1  0
  9  4  2  0
 10  5  2  0
 11  6  1  0
 12 13  2  0
 13 10  1  0
  4  3  1  0
 12  9  1  0
  8 11  1  0
M  END