
     RDKit          2D

 15 17  0  0  0  0  0  0  0  0999 V2000
    2.9667   -0.4750    0.0000 N   0  0  0  0  0  0  0  0  0  0  0  0
    3.4292    0.1958    0.0000 C   0  0  0  0  0  0  0  0  0  0  0  0
    2.1667   -0.2417    0.0000 C   0  0  0  0  0  0  0  0  0  0  0  0
    2.9375    0.8583    0.0000 C   0  0  0  0  0  0  0  0  0  0  0  0
    2.1542    0.5833    0.0000 C   0  0  0  0  0  0  0  0  0  0  0  0
    4.5875    1.0500    0.0000 N   0  0  0  0  0  0  0  0  0  0  0  0
    1.4667   -0.6667    0.0000 C   0  0  0  0  0  0  0  0  0  0  0  0
    1.4292    0.9750    0.0000 C   0  0  0  0  0  0  0  0  0  0  0  0
    4.2542    0.2958    0.0000 C   0  0  0  0  0  0  0  0  0  0  0  0
    0.7417   -0.2667    0.0000 C   0  0  0  0  0  0  0  0  0  0  0  0
    0.7292    0.5458    0.0000 C   0  0  0  0  0  0  0  0  0  0  0  0
    3.2542    1.6208    0.0000 C   0  0  0  0  0  0  0  0  0  0  0  0
    4.0750    1.7208    0.0000 C   0  0  0  0  0  0  0  0  0  0  0  0
    0.0375   -0.6917    0.0000 O   0  0  0  0  0  0  0  0  0  0  0  0
    0.0542   -1.5167    0.0000 C   0  0  0  0  0  0  0  0  0  0  0  0
  2  1  1  0
  3  1  1  0
  4  2  2  0
  5  3  1  0
  6  9  2  0
  7  3  2  0
  8  5  2  0
  9  2  1  0
 10  7  1  0
 11 10  2  0
 12  4  1  0
 13  6  1  0
 14 10  1  0
 15 14  1  0
  5  4  1  0
 11  8  1  0
 12 13  1  0
M  END