
     RDKit          2D

 24 26  0  0  0  0  0  0  0  0999 V2000
    4.4125   -4.0917    0.0000 S   0  0  0  0  0  0  0  0  0  0  0  0
    5.8417   -4.0875    0.0000 C   0  0  0  0  0  0  0  0  0  0  0  0
    5.1292   -4.4917    0.0000 N   0  0  0  0  0  0  0  0  0  0  0  0
    6.5917   -4.4042    0.0000 C   0  0  0  0  0  0  0  0  0  0  0  0
    6.7167   -3.0750    0.0000 N   0  0  0  0  0  0  0  0  0  0  0  0
    4.4125   -3.2667    0.0000 C   0  0  0  0  0  0  0  0  0  0  0  0
    5.9042   -3.2542    0.0000 O   0  0  0  0  0  0  0  0  0  0  0  0
    3.7000   -2.8500    0.0000 C   0  0  0  0  0  0  0  0  0  0  0  0
    3.7000   -2.0167    0.0000 C   0  0  0  0  0  0  0  0  0  0  0  0
    7.1417   -3.7917    0.0000 C   0  0  0  0  0  0  0  0  0  0  0  0
    2.9792   -1.6125    0.0000 C   0  0  0  0  0  0  0  0  0  0  0  0
    3.5875   -4.0875    0.0000 O   0  0  0  0  0  0  0  0  0  0  0  0
    4.4125   -4.9167    0.0000 O   0  0  0  0  0  0  0  0  0  0  0  0
    2.9792   -0.7792    0.0000 N   0  0  0  0  0  0  0  0  0  0  0  0
    6.7667   -5.2167    0.0000 C   0  0  0  0  0  0  0  0  0  0  0  0
    5.1292   -2.8500    0.0000 C   0  0  0  0  0  0  0  0  0  0  0  0
    4.4125   -1.6125    0.0000 C   0  0  0  0  0  0  0  0  0  0  0  0
    2.9792   -3.2667    0.0000 C   0  0  0  0  0  0  0  0  0  0  0  0
    2.2750   -2.0167    0.0000 C   0  0  0  0  0  0  0  0  0  0  0  0
    2.2750   -2.8500    0.0000 C   0  0  0  0  0  0  0  0  0  0  0  0
    5.1292   -2.0167    0.0000 C   0  0  0  0  0  0  0  0  0  0  0  0
    7.9625   -3.8667    0.0000 C   0  0  0  0  0  0  0  0  0  0  0  0
    2.2542   -0.3667    0.0000 C   0  0  0  0  0  0  0  0  0  0  0  0
    3.7000   -0.3667    0.0000 C   0  0  0  0  0  0  0  0  0  0  0  0
  2  3  1  0
  3  1  1  0
  4  2  2  0
  5  7  1  0
  6  1  1  0
  7  2  1  0
  8  6  1  0
  9  8  2  0
 10  4  1  0
 11  9  1  0
 12  1  2  0
 13  1  2  0
 14 11  1  0
 15  4  1  0
 16  6  2  0
 17 21  2  0
 18  8  1  0
 19 20  1  0
 20 18  2  0
 21 16  1  0
 22 10  1  0
 23 14  1  0
 24 14  1  0
 17  9  1  0
  5 10  2  0
 19 11  2  0
M  END