
     RDKit          2D

 13 13  0  0  0  0  0  0  0  0999 V2000
    7.6008   -2.9213    0.0000 C   0  0  0  0  0  0  0  0  0  0  0  0
    7.6016   -3.7482    0.0000 C   0  0  0  0  0  0  0  0  0  0  0  0
    8.3169   -4.1591    0.0000 C   0  0  0  0  0  0  0  0  0  0  0  0
    9.0319   -3.7444    0.0000 C   0  0  0  0  0  0  0  0  0  0  0  0
    9.0271   -2.9144    0.0000 C   0  0  0  0  0  0  0  0  0  0  0  0
    8.3112   -2.5072    0.0000 C   0  0  0  0  0  0  0  0  0  0  0  0
    8.3069   -1.6822    0.0000 S   0  0  0  0  0  0  0  0  0  0  0  0
    9.0191   -1.2659    0.0000 N   0  0  0  0  0  0  0  0  0  0  0  0
    7.5042   -1.8917    0.0000 O   0  0  0  0  0  0  0  0  0  0  0  0
    8.0875   -0.8792    0.0000 O   0  0  0  0  0  0  0  0  0  0  0  0
    8.3186   -4.9841    0.0000 C   0  0  0  0  0  0  0  0  0  0  0  0
    7.6054   -5.3990    0.0000 O   0  0  0  0  0  0  0  0  0  0  0  0
    9.0343   -5.3961    0.0000 O   0  0  0  0  0  0  0  0  0  0  0  0
  1  2  2  0
  6  7  1  0
  3  4  2  0
  7  8  1  0
  7  9  2  0
  4  5  1  0
  7 10  2  0
  2  3  1  0
  3 11  1  0
  5  6  2  0
  6  1  1  0
 11 12  1  0
 11 13  2  0
M  END