
     RDKit          2D

 11 11  0  0  0  0  0  0  0  0999 V2000
   -1.2208   -9.2708    0.0000 C   0  0  0  0  0  0  0  0  0  0  0  0
   -1.2208  -10.0958    0.0000 C   0  0  0  0  0  0  0  0  0  0  0  0
   -0.5088  -10.5042    0.0000 N   0  0  0  0  0  0  0  0  0  0  0  0
    0.2032  -10.0958    0.0000 C   0  0  0  0  0  0  0  0  0  0  0  0
    0.2032   -9.2708    0.0000 C   0  0  0  0  0  0  0  0  0  0  0  0
   -0.5088   -8.8542    0.0000 C   0  0  0  0  0  0  0  0  0  0  0  0
   -0.5088  -11.3292    0.0000 C   0  0  0  0  0  0  0  0  0  0  0  0
    0.9205   -8.8594    0.0000 C   0  0  0  0  0  0  0  0  0  0  0  0
    1.6338   -9.2740    0.0000 O   0  0  0  0  0  0  0  0  0  0  0  0
    0.9229   -8.0344    0.0000 O   0  0  0  0  0  0  0  0  0  0  0  0
    1.6314  -10.0990    0.0000 C   0  0  0  0  0  0  0  0  0  0  0  0
  4  5  1  0
  5  6  2  0
  3  7  1  0
  1  2  1  0
  1  6  1  0
  2  3  1  0
  8  9  1  0
  8 10  2  0
  5  8  1  0
  3  4  1  0
  9 11  1  0
M  END