
     RDKit          2D

 15 15  0  0  0  0  0  0  0  0999 V2000
    0.0000   -2.4785    0.0000 Br  0  0  0  0  0  0  0  0  0  0  0  0
    2.8651   -2.4785    0.0000 O   0  0  0  0  0  0  0  0  0  0  0  0
    0.0000   -0.8290    0.0000 O   0  0  0  0  0  0  0  0  0  0  0  0
    4.2955   -0.8290    0.0000 N   0  0  0  0  0  0  0  0  0  0  0  0
    2.1477   -1.2457    0.0000 C   0  0  0  0  0  0  0  0  0  0  0  0
    2.1477   -2.0704    0.0000 C   0  0  0  0  0  0  0  0  0  0  0  0
    0.7173   -1.2457    0.0000 C   0  0  0  0  0  0  0  0  0  0  0  0
    0.7173   -2.0704    0.0000 C   0  0  0  0  0  0  0  0  0  0  0  0
    1.4304   -0.8290    0.0000 C   0  0  0  0  0  0  0  0  0  0  0  0
    1.4304   -2.4785    0.0000 C   0  0  0  0  0  0  0  0  0  0  0  0
    2.8651   -0.8290    0.0000 C   0  0  0  0  0  0  0  0  0  0  0  0
    3.5782   -1.2371    0.0000 C   0  0  0  0  0  0  0  0  0  0  0  0
    2.8651   -3.3032    0.0000 C   0  0  0  0  0  0  0  0  0  0  0  0
    0.0000    0.0000    0.0000 C   0  0  0  0  0  0  0  0  0  0  0  0
    3.5782   -2.0618    0.0000 C   0  0  0  0  0  0  0  0  0  0  0  0
  1  8  1  0
  2  6  1  0
  2 13  1  0
  3  7  1  0
  3 14  1  0
  4 12  1  0
  5  6  1  0
  5  9  2  0
  5 11  1  0
  6 10  2  0
  7  8  2  0
  7  9  1  0
  8 10  1  0
 11 12  1  0
 12 15  1  0
M  END