
     RDKit          2D

 43 45  0  0  0  0  0  0  0  0999 V2000
   -2.6201    1.9619    0.0000 C   0  0  0  0  0  0  0  0  0  0  0  0
   -3.3346    2.3744    0.0000 C   0  0  0  0  0  0  0  0  0  0  0  0
   -3.3346    3.1994    0.0000 C   0  0  0  0  0  0  0  0  0  0  0  0
   -2.6201    3.6119    0.0000 C   0  0  0  0  0  0  0  0  0  0  0  0
   -1.9056    3.1994    0.0000 C   0  0  0  0  0  0  0  0  0  0  0  0
   -1.9056    2.3744    0.0000 C   0  0  0  0  0  0  0  0  0  0  0  0
   -2.6201    1.1369    0.0000 C   0  0  0  0  0  0  0  0  0  0  0  0
   -1.9056    0.7244    0.0000 N   0  0  0  0  0  0  0  0  0  0  0  0
   -3.3346    0.7244    0.0000 O   0  0  0  0  0  0  0  0  0  0  0  0
   -1.1912    1.1369    0.0000 C   0  0  0  0  0  0  0  0  0  0  0  0
   -0.4767    0.7244    0.0000 C   0  0  0  0  0  0  0  0  0  0  0  0
   -0.4767   -0.1006    0.0000 N   0  0  0  0  0  0  0  0  0  0  0  0
   -1.1912   -0.5131    0.0000 C   0  0  0  0  0  0  0  0  0  0  0  0
   -1.9056   -0.1006    0.0000 C   0  0  0  0  0  0  0  0  0  0  0  0
    0.2378   -0.5131    0.0000 C   0  0  0  0  0  0  0  0  0  0  0  0
    0.2378   -1.3381    0.0000 C   0  0  0  0  0  0  0  0  0  0  0  0
    0.9522   -0.1006    0.0000 O   0  0  0  0  0  0  0  0  0  0  0  0
    0.9522   -1.7506    0.0000 C   0  0  0  0  0  0  0  0  0  0  0  0
    0.9522   -2.5756    0.0000 C   0  0  0  0  0  0  0  0  0  0  0  0
    0.2378   -2.9881    0.0000 C   0  0  0  0  0  0  0  0  0  0  0  0
   -0.4767   -2.5756    0.0000 C   0  0  0  0  0  0  0  0  0  0  0  0
   -0.4767   -1.7506    0.0000 C   0  0  0  0  0  0  0  0  0  0  0  0
   -1.1912   -2.9881    0.0000 O   0  0  0  0  0  0  0  0  0  0  0  0
   -1.9056   -2.5756    0.0000 C   0  0  0  0  0  0  0  0  0  0  0  0
    0.2378   -3.8131    0.0000 O   0  0  0  0  0  0  0  0  0  0  0  0
   -0.4767   -4.2256    0.0000 C   0  0  0  0  0  0  0  0  0  0  0  0
    1.6667   -2.9881    0.0000 O   0  0  0  0  0  0  0  0  0  0  0  0
    1.6667   -3.8131    0.0000 C   0  0  0  0  0  0  0  0  0  0  0  0
    0.2378    1.1369    0.0000 C   0  0  0  0  0  0  0  0  0  0  0  0
    0.9522    0.7244    0.0000 O   0  0  0  0  0  0  0  0  0  0  0  0
    1.6667    1.1369    0.0000 C   0  0  0  0  0  0  0  0  0  0  0  0
    2.3812    0.7244    0.0000 N   0  0  0  0  0  0  0  0  0  0  0  0
    1.6667    1.9619    0.0000 O   0  0  0  0  0  0  0  0  0  0  0  0
    2.3812   -0.1006    0.0000 C   0  0  0  0  0  0  0  0  0  0  0  0
    3.0956    1.1369    0.0000 C   0  0  0  0  0  0  0  0  0  0  0  0
    3.0956   -0.5131    0.0000 C   0  0  0  0  0  0  0  0  0  0  0  0
    3.8101    0.7244    0.0000 C   0  0  0  0  0  0  0  0  0  0  0  0
   -2.6201    4.4369    0.0000 O   0  0  0  0  0  0  0  0  0  0  0  0
   -3.3346    4.8494    0.0000 C   0  0  0  0  0  0  0  0  0  0  0  0
   -4.0491    3.6119    0.0000 O   0  0  0  0  0  0  0  0  0  0  0  0
   -4.0491    4.4369    0.0000 C   0  0  0  0  0  0  0  0  0  0  0  0
   -1.1912    3.6119    0.0000 O   0  0  0  0  0  0  0  0  0  0  0  0
   -0.4767    3.1994    0.0000 C   0  0  0  0  0  0  0  0  0  0  0  0
  1  2  2  0
  2  3  1  0
  3  4  2  0
  4  5  1  0
  5  6  2  0
  6  1  1  0
  1  7  1  0
  7  8  1  0
  7  9  2  0
  8 10  1  0
 14  8  1  0
 10 11  1  0
 11 12  1  0
 12 13  1  0
 13 14  1  0
 12 15  1  0
 15 16  1  0
 15 17  2  0
 16 18  2  0
 22 16  1  0
 18 19  1  0
 19 20  2  0
 20 21  1  0
 21 22  2  0
 21 23  1  0
 23 24  1  0
 20 25  1  0
 25 26  1  0
 19 27  1  0
 27 28  1  0
 11 29  1  0
 29 30  1  0
 30 31  1  0
 31 32  1  0
 31 33  2  0
 32 34  1  0
 32 35  1  0
 34 36  1  0
 35 37  1  0
  4 38  1  0
 38 39  1  0
  3 40  1  0
 40 41  1  0
  5 42  1  0
 42 43  1  0
M  END