
     RDKit          2D

 15 16  0  0  1  0  0  0  0  0999 V2000
    0.2455   -2.1211    0.0000 C   0  0  0  0  0  0  0  0  0  0  0  0
    0.7500   -1.0323    0.0000 C   0  0  0  0  0  0  0  0  0  0  0  0
    1.9414   -0.8892    0.0000 C   0  0  0  0  0  0  0  0  0  0  0  0
    1.2135    0.3943    0.0000 C   0  0  0  0  0  0  0  0  0  0  0  0
    0.0000    1.2760    0.0000 N   0  0  0  0  0  0  0  0  0  0  0  0
   -1.2135    0.3943    0.0000 C   0  0  0  0  0  0  0  0  0  0  0  0
   -2.0931    1.6049    0.0000 C   0  0  0  0  0  0  0  0  0  0  0  0
   -0.8796    2.4866    0.0000 C   0  0  0  0  0  0  0  0  0  0  0  0
   -0.6918    3.6718    0.0000 O   0  0  0  0  0  0  0  0  0  0  0  0
   -0.7500   -1.0323    0.0000 S   0  0  0  0  0  0  0  0  0  0  0  0
   -0.2455   -2.1211    0.0000 O   0  0  0  0  0  0  0  0  0  0  0  0
   -1.9414   -0.8892    0.0000 O   0  0  0  0  0  0  0  0  0  0  0  0
    2.6394    0.8543    0.0000 C   0  0  0  0  0  0  0  0  0  0  0  0
    3.5300    0.0501    0.0000 O   0  0  0  0  0  0  0  0  0  0  0  0
    2.8910    2.0277    0.0000 O   0  0  0  0  0  0  0  0  0  0  0  0
  1  2  1  0
  2  3  1  0
  2  4  1  0
  4  5  1  0
  5  6  1  0
  6  7  1  6
  7  8  1  0
  8  5  1  0
  8  9  2  0
  6 10  1  0
 10  2  1  0
 10 11  2  0
 10 12  2  0
  4 13  1  1
 13 14  2  0
 13 15  1  0
M  END