
     RDKit          2D

 26 28  0  0  0  0  0  0  0  0999 V2000
   -1.2293   -1.4334    0.0000 C   0  0  0  0  0  0  0  0  0  0  0  0
   -1.2293   -2.2585    0.0000 C   0  0  0  0  0  0  0  0  0  0  0  0
   -0.5171   -2.6669    0.0000 N   0  0  0  0  0  0  0  0  0  0  0  0
   -0.5171   -1.0168    0.0000 C   0  0  0  0  0  0  0  0  0  0  0  0
    0.1949   -1.4334    0.0000 C   0  0  0  0  0  0  0  0  0  0  0  0
    0.1933   -2.2567    0.0000 C   0  0  0  0  0  0  0  0  0  0  0  0
    0.9043   -2.6679    0.0000 C   0  0  0  0  0  0  0  0  0  0  0  0
    1.6174   -2.2570    0.0000 C   0  0  0  0  0  0  0  0  0  0  0  0
    1.6150   -1.4306    0.0000 C   0  0  0  0  0  0  0  0  0  0  0  0
    0.9034   -1.0232    0.0000 C   0  0  0  0  0  0  0  0  0  0  0  0
   -1.9450   -1.0230    0.0000 C   0  0  0  0  0  0  0  0  0  0  0  0
   -1.9475   -0.1979    0.0000 O   0  0  0  0  0  0  0  0  0  0  0  0
   -2.6583   -1.4376    0.0000 O   0  0  0  0  0  0  0  0  0  0  0  0
   -0.5171   -0.1917    0.0000 O   0  0  0  0  0  0  0  0  0  0  0  0
   -0.5159   -3.4920    0.0000 C   0  0  0  0  0  0  0  0  0  0  0  0
   -1.2299   -3.9055    0.0000 C   0  0  0  0  0  0  0  0  0  0  0  0
   -1.2287   -4.7306    0.0000 F   0  0  0  0  0  0  0  0  0  0  0  0
    0.9036   -3.4930    0.0000 F   0  0  0  0  0  0  0  0  0  0  0  0
    2.3282   -1.0158    0.0000 F   0  0  0  0  0  0  0  0  0  0  0  0
    2.3291   -2.6667    0.0000 N   0  0  0  0  0  0  0  0  0  0  0  0
    2.3279   -3.4927    0.0000 C   0  0  0  0  0  0  0  0  0  0  0  0
    3.0388   -3.9044    0.0000 C   0  0  0  0  0  0  0  0  0  0  0  0
    3.7553   -3.4947    0.0000 N   0  0  0  0  0  0  0  0  0  0  0  0
    3.7565   -2.6687    0.0000 C   0  0  0  0  0  0  0  0  0  0  0  0
    3.0411   -2.2524    0.0000 C   0  0  0  0  0  0  0  0  0  0  0  0
    4.4687   -3.9092    0.0000 C   0  0  0  0  0  0  0  0  0  0  0  0
  5  6  2  0
 11 13  1  0
  1  4  1  0
  4 14  2  0
  6  7  1  0
  3 15  1  0
  2  3  1  0
 15 16  1  0
  7  8  2  0
 16 17  1  0
  3  6  1  0
  7 18  1  0
  8  9  1  0
  9 19  1  0
 20 21  1  0
  5  4  1  0
  9 10  2  0
 10  5  1  0
  1 11  1  0
  1  2  2  0
 20 25  1  0
 21 22  1  0
 22 23  1  0
 23 24  1  0
 24 25  1  0
  8 20  1  0
 11 12  2  0
 23 26  1  0
M  END