
     RDKit          2D

 27 29  0  0  0  0  0  0  0  0999 V2000
    5.2875   -2.7042    0.0000 C   0  0  0  0  0  0  0  0  0  0  0  0
    3.8625   -2.7167    0.0000 C   0  0  0  0  0  0  0  0  0  0  0  0
    4.5792   -3.9542    0.0000 N   0  0  0  0  0  0  0  0  0  0  0  0
    3.8625   -3.5417    0.0000 C   0  0  0  0  0  0  0  0  0  0  0  0
    4.5667   -2.3000    0.0000 C   0  0  0  0  0  0  0  0  0  0  0  0
    3.1417   -3.9542    0.0000 C   0  0  0  0  0  0  0  0  0  0  0  0
    5.2917   -3.5375    0.0000 C   0  0  0  0  0  0  0  0  0  0  0  0
    2.4292   -3.5417    0.0000 C   0  0  0  0  0  0  0  0  0  0  0  0
    1.7167   -3.9542    0.0000 N   0  0  0  0  0  0  0  0  0  0  0  0
    2.4292   -2.7167    0.0000 C   0  0  0  0  0  0  0  0  0  0  0  0
    3.1417   -2.3042    0.0000 C   0  0  0  0  0  0  0  0  0  0  0  0
    6.0000   -2.2917    0.0000 C   0  0  0  0  0  0  0  0  0  0  0  0
    0.9667   -3.6250    0.0000 C   0  0  0  0  0  0  0  0  0  0  0  0
    1.6292   -4.7792    0.0000 C   0  0  0  0  0  0  0  0  0  0  0  0
    4.5667   -1.4750    0.0000 O   0  0  0  0  0  0  0  0  0  0  0  0
    5.9917   -1.4667    0.0000 O   0  0  0  0  0  0  0  0  0  0  0  0
    3.1500   -4.7792    0.0000 F   0  0  0  0  0  0  0  0  0  0  0  0
    0.4167   -4.2375    0.0000 C   0  0  0  0  0  0  0  0  0  0  0  0
    1.7167   -2.3042    0.0000 F   0  0  0  0  0  0  0  0  0  0  0  0
    4.5792   -4.7792    0.0000 C   0  0  0  0  0  0  0  0  0  0  0  0
    6.7167   -2.7000    0.0000 O   0  0  0  0  0  0  0  0  0  0  0  0
    0.8250   -4.9542    0.0000 C   0  0  0  0  0  0  0  0  0  0  0  0
   -0.8958   -4.8167    0.0000 N   0  0  0  0  0  0  0  0  0  0  0  0
   -0.4083   -4.1500    0.0000 C   0  0  0  0  0  0  0  0  0  0  0  0
   -1.7125   -4.7292    0.0000 C   0  0  0  0  0  0  0  0  0  0  0  0
    3.8667   -5.1917    0.0000 C   0  0  0  0  0  0  0  0  0  0  0  0
   -2.1958   -5.4000    0.0000 C   0  0  0  0  0  0  0  0  0  0  0  0
  2  5  1  0
  3  7  1  0
  4  3  1  0
  5  1  1  0
  6  4  2  0
  7  1  2  0
  8  6  1  0
  9  8  1  0
 10 11  1  0
 11  2  2  0
 12  1  1  0
 13  9  1  0
 14  9  1  0
 15  5  2  0
 16 12  2  0
 17  6  1  0
 18 13  1  0
 19 10  1  0
 20  3  1  0
 21 12  1  0
 22 14  1  0
 23 24  1  0
 24 18  1  0
 25 23  1  0
 26 20  1  0
 27 25  1  0
  2  4  1  0
 10  8  2  0
 18 22  1  0
M  END