
     RDKit          2D

 28 31  0  0  0  0  0  0  0  0999 V2000
    0.9375   -1.9792    0.0000 C   0  0  0  0  0  0  0  0  0  0  0  0
    0.9292   -2.6917    0.0000 N   0  0  0  0  0  0  0  0  0  0  0  0
   -0.3208   -2.6750    0.0000 C   0  0  0  0  0  0  0  0  0  0  0  0
    0.2875   -3.0417    0.0000 C   0  0  0  0  0  0  0  0  0  0  0  0
    0.3042   -1.6167    0.0000 N   0  0  0  0  0  0  0  0  0  0  0  0
   -0.3208   -1.9625    0.0000 C   0  0  0  0  0  0  0  0  0  0  0  0
    3.3917   -0.5917    0.0000 C   0  0  0  0  0  0  0  0  0  0  0  0
    1.5542   -1.6417    0.0000 N   0  0  0  0  0  0  0  0  0  0  0  0
    2.7792   -0.9542    0.0000 N   0  0  0  0  0  0  0  0  0  0  0  0
   -0.9500   -3.0167    0.0000 C   0  0  0  0  0  0  0  0  0  0  0  0
    4.0125   -0.9292    0.0000 C   0  0  0  0  0  0  0  0  0  0  0  0
   -0.9250   -1.5917    0.0000 C   0  0  0  0  0  0  0  0  0  0  0  0
   -1.5833   -2.6542    0.0000 C   0  0  0  0  0  0  0  0  0  0  0  0
   -1.5708   -1.9417    0.0000 C   0  0  0  0  0  0  0  0  0  0  0  0
    4.2417   -1.5917    0.0000 O   0  0  0  0  0  0  0  0  0  0  0  0
    1.5417   -0.9500    0.0000 C   0  0  0  0  0  0  0  0  0  0  0  0
    2.1667   -2.0000    0.0000 C   0  0  0  0  0  0  0  0  0  0  0  0
    2.1667   -0.5792    0.0000 C   0  0  0  0  0  0  0  0  0  0  0  0
    2.7792   -1.6375    0.0000 C   0  0  0  0  0  0  0  0  0  0  0  0
    3.4042    0.0875    0.0000 O   0  0  0  0  0  0  0  0  0  0  0  0
    4.5792   -0.5125    0.0000 C   0  0  0  0  0  0  0  0  0  0  0  0
    4.9417   -1.5917    0.0000 C   0  0  0  0  0  0  0  0  0  0  0  0
    5.1542   -0.9292    0.0000 C   0  0  0  0  0  0  0  0  0  0  0  0
    0.2667   -3.7542    0.0000 N   0  0  0  0  0  0  0  0  0  0  0  0
   -2.2000   -2.9917    0.0000 O   0  0  0  0  0  0  0  0  0  0  0  0
   -2.1833   -1.5792    0.0000 O   0  0  0  0  0  0  0  0  0  0  0  0
   -2.7958   -1.9125    0.0000 C   0  0  0  0  0  0  0  0  0  0  0  0
   -2.7958   -2.6542    0.0000 C   0  0  0  0  0  0  0  0  0  0  0  0
  2  1  2  0
  3  6  1  0
  4  2  1  0
  5  1  1  0
  6  5  2  0
  7  9  1  0
  8  1  1  0
  9 19  1  0
 10  3  1  0
 11  7  1  0
 12  6  1  0
 13 14  1  0
 14 12  2  0
 15 11  1  0
 16  8  1  0
 17  8  1  0
 18 16  1  0
 19 17  1  0
 20  7  2  0
 21 11  2  0
 22 15  1  0
 23 21  1  0
 24  4  1  0
 25 13  1  0
 26 14  1  0
 27 26  1  0
 28 25  1  0
  3  4  2  0
  9 18  1  0
 10 13  2  0
 22 23  2  0
M  END