
     RDKit          2D

 79 89  0  0  1  0  0  0  0  0999 V2000
   19.6250   -1.8042    0.0000 C   0  0  0  0  0  0  0  0  0  0  0  0
    5.7542   -6.0667    0.0000 C   0  0  0  0  0  0  0  0  0  0  0  0
   18.6042   -2.1042    0.0000 O   0  0  0  0  0  0  0  0  0  0  0  0
   13.5125   -5.0750    0.0000 C   0  0  0  0  0  0  0  0  0  0  0  0
    4.8500   -5.5375    0.0000 O   0  0  0  0  0  0  0  0  0  0  0  0
   20.3417   -2.5500    0.0000 C   0  0  0  0  0  0  0  0  0  0  0  0
   10.9167   -6.8042    0.0000 O   0  0  0  0  0  0  0  0  0  0  0  0
   12.5875   -4.5625    0.0000 O   0  0  0  0  0  0  0  0  0  0  0  0
    3.9500   -6.0667    0.0000 C   0  0  0  0  0  0  0  0  0  0  0  0
    3.9500   -7.1292    0.0000 C   0  0  0  0  0  0  0  0  0  0  0  0
   11.7042   -5.1167    0.0000 C   0  0  0  0  0  0  0  0  0  0  0  0
   14.4167   -6.6000    0.0000 O   0  0  0  0  0  0  0  0  0  0  0  0
   11.7042   -6.1375    0.0000 C   0  0  0  0  0  0  0  0  0  0  0  0
    5.7542   -7.1125    0.0000 C   0  0  0  0  0  0  0  0  0  0  0  0
    3.0667   -5.5375    0.0000 C   0  0  0  0  0  0  0  0  0  0  0  0
   13.5375   -6.0667    0.0000 C   0  0  0  0  0  0  0  0  0  0  0  0
   15.3417   -6.0667    0.0000 C   0  0  0  0  0  0  0  0  0  0  0  0
    6.6542   -7.6167    0.0000 O   0  0  0  0  0  0  0  0  0  0  0  0
   16.0542   -4.3792    0.0000 O   0  0  0  0  0  0  0  0  0  0  0  0
    8.3917   -5.4417    0.0000 O   0  0  0  0  0  0  0  0  0  0  0  0
    9.9000   -6.5792    0.0000 C   0  0  0  0  0  0  0  0  0  0  0  0
   18.3542   -3.1042    0.0000 C   0  0  0  0  0  0  0  0  0  0  0  0
   15.3167   -5.0917    0.0000 C   0  0  0  0  0  0  0  0  0  0  0  0
   18.7917   -4.8417    0.0000 O   0  0  0  0  0  0  0  0  0  0  0  0
    3.0667   -7.6417    0.0000 O   0  0  0  0  0  0  0  0  0  0  0  0
   19.0667   -3.8417    0.0000 C   0  0  0  0  0  0  0  0  0  0  0  0
    7.5792   -6.0917    0.0000 C   0  0  0  0  0  0  0  0  0  0  0  0
    2.1875   -7.1125    0.0000 C   0  0  0  0  0  0  0  0  0  0  0  0
   21.3625   -2.2917    0.0000 O   0  0  0  0  0  0  0  0  0  0  0  0
   17.0792   -4.3792    0.0000 C   0  0  0  0  0  0  0  0  0  0  0  0
    7.5792   -7.0875    0.0000 C   0  0  0  0  0  0  0  0  0  0  0  0
   14.4167   -4.5625    0.0000 C   0  0  0  0  0  0  0  0  0  0  0  0
    6.6542   -5.5542    0.0000 C   0  0  0  0  0  0  0  0  0  0  0  0
    2.1875   -6.0667    0.0000 C   0  0  0  0  0  0  0  0  0  0  0  0
    9.4125   -5.6750    0.0000 C   0  0  0  0  0  0  0  0  0  0  0  0
   19.8792   -0.8125    0.0000 C   0  0  0  0  0  0  0  0  0  0  0  0
   20.0667   -3.5667    0.0000 C   0  0  0  0  0  0  0  0  0  0  0  0
    4.8500   -7.6417    0.0000 C   0  0  0  0  0  0  0  0  0  0  0  0
   12.6292   -6.6417    0.0000 C   0  0  0  0  0  0  0  0  0  0  0  0
   17.3292   -3.4042    0.0000 C   0  0  0  0  0  0  0  0  0  0  0  0
   17.7917   -5.0917    0.0000 C   0  0  0  0  0  0  0  0  0  0  0  0
    9.4125   -7.5042    0.0000 C   0  0  0  0  0  0  0  0  0  0  0  0
   21.6625   -1.3000    0.0000 C   0  0  0  0  0  0  0  0  0  0  0  0
   20.8750   -0.5125    0.0000 C   0  0  0  0  0  0  0  0  0  0  0  0
    8.3917   -7.7375    0.0000 C   0  0  0  0  0  0  0  0  0  0  0  0
   10.8667   -4.4417    0.0000 C   0  0  0  0  0  0  0  0  0  0  0  0
   23.3792   -1.8292    0.0000 C   0  0  0  0  0  0  0  0  0  0  0  0
   17.8167   -6.0667    0.0000 C   0  0  0  0  0  0  0  0  0  0  0  0
   17.1000   -6.8042    0.0000 C   0  0  0  0  0  0  0  0  0  0  0  0
    1.2375   -7.5917    0.0000 O   0  0  0  0  0  0  0  0  0  0  0  0
    9.8542   -4.7042    0.0000 C   0  0  0  0  0  0  0  0  0  0  0  0
   22.6792   -1.0917    0.0000 C   0  0  0  0  0  0  0  0  0  0  0  0
   23.7667   -3.5667    0.0000 O   0  0  0  0  0  0  0  0  0  0  0  0
   24.3917   -1.6000    0.0000 C   0  0  0  0  0  0  0  0  0  0  0  0
   23.0542   -2.8250    0.0000 C   0  0  0  0  0  0  0  0  0  0  0  0
   16.0792   -6.8042    0.0000 C   0  0  0  0  0  0  0  0  0  0  0  0
   18.8375   -1.1125    0.0000 C   0  0  0  0  0  0  0  0  0  0  0  0
   19.1417   -0.0917    0.0000 O   0  0  0  0  0  0  0  0  0  0  0  0
    5.7542   -5.0250    0.0000 C   0  0  0  0  0  0  0  0  0  0  0  0
   13.5125   -4.1000    0.0000 C   0  0  0  0  0  0  0  0  0  0  0  0
    3.0667   -4.4417    0.0000 C   0  0  0  0  0  0  0  0  0  0  0  0
   11.7042   -4.0792    0.0000 C   0  0  0  0  0  0  0  0  0  0  0  0
   15.3167   -7.0875    0.0000 C   0  0  0  0  0  0  0  0  0  0  0  0
   10.1042   -8.3625    0.0000 C   0  0  0  0  0  0  0  0  0  0  0  0
   18.5125   -5.8792    0.0000 H   0  0  0  0  0  0  0  0  0  0  0  0
   17.5875   -2.4292    0.0000 H   0  0  0  0  0  0  0  0  0  0  0  0
    3.9500   -8.1750    0.0000 H   0  0  0  0  0  0  0  0  0  0  0  0
   11.7042   -7.1792    0.0000 H   0  0  0  0  0  0  0  0  0  0  0  0
    7.5792   -5.0500    0.0000 H   0  0  0  0  0  0  0  0  0  0  0  0
   10.5167   -7.3667    0.0000 H   0  0  0  0  0  0  0  0  0  0  0  0
   13.5125   -7.1292    0.0000 H   0  0  0  0  0  0  0  0  0  0  0  0
    7.6042   -8.1292    0.0000 H   0  0  0  0  0  0  0  0  0  0  0  0
   19.7417   -4.4417    0.0000 H   0  0  0  0  0  0  0  0  0  0  0  0
    5.7542   -8.1542    0.0000 H   0  0  0  0  0  0  0  0  0  0  0  0
    8.8792   -4.8167    0.0000 H   0  0  0  0  0  0  0  0  0  0  0  0
   15.3167   -4.0792    0.0000 H   0  0  0  0  0  0  0  0  0  0  0  0
   16.4750   -3.5667    0.0000 H   0  0  0  0  0  0  0  0  0  0  0  0
   21.2000   -3.2167    0.0000 H   0  0  0  0  0  0  0  0  0  0  0  0
    3.9500   -5.1167    0.0000 H   0  0  0  0  0  0  0  0  0  0  0  0
  2 33  1  0
  3  1  1  0
  4 32  1  0
  5  2  1  0
  6  1  1  0
  7 13  1  0
  8  4  1  0
  9  5  1  0
 10 38  1  0
 11  8  1  0
 12 17  1  0
 13 39  1  0
 14 18  1  0
 15  9  1  0
 16  4  1  0
 17 23  1  0
 18 31  1  0
 19 30  1  0
 20 35  1  0
 21  7  1  0
 22  3  1  0
 23 19  1  0
 24 26  1  0
 25 10  1  0
 26 37  1  0
 27 20  1  0
 28 25  1  0
 29  6  1  0
 30 40  1  0
 31 45  1  0
 32 23  1  0
 33 27  1  0
 34 15  2  0
 35 51  1  0
 36  1  1  0
 37  6  1  0
 38 14  1  0
 39 16  1  0
 40 22  1  0
 41 24  1  0
 42 21  1  0
 43 44  1  0
 44 36  1  0
 45 42  1  0
 46 11  1  0
 47 52  1  0
 48 41  1  0
 49 48  2  0
 50 28  2  0
 51 46  1  0
 43 52  1  6
 53 55  2  0
 54 47  2  0
 55 47  1  0
 56 49  1  0
  1 57  1  6
 36 58  1  1
  2 59  1  6
  4 60  1  6
 61 15  1  0
 11 62  1  6
 17 63  1  1
 42 64  1  6
 41 65  1  1
 22 66  1  6
 10 67  1  1
 13 68  1  1
 27 69  1  6
 21 70  1  1
 16 71  1  1
 31 72  1  1
 26 73  1  1
 14 74  1  1
 35 75  1  6
 23 76  1  6
 30 77  1  6
  6 78  1  1
  9 79  1  6
 29 43  1  0
 22 26  1  0
 30 41  1  0
 17 56  1  0
 12 16  1  0
 11 13  1  0
 21 35  1  0
 27 31  1  0
  2 14  1  0
  9 10  1  0
 28 34  1  0
M  END