
     RDKit          2D

 22 25  0  0  0  0  0  0  0  0999 V2000
    0.8250   -0.7145    0.0000 C   0  0  0  0  0  0  0  0  0  0  0  0
    0.4125   -0.0000    0.0000 C   0  0  0  0  0  0  0  0  0  0  0  0
   -0.4125   -0.0000    0.0000 C   0  0  0  0  0  0  0  0  0  0  0  0
   -0.8250   -0.7145    0.0000 C   0  0  0  0  0  0  0  0  0  0  0  0
   -0.4125   -1.4290    0.0000 O   0  0  0  0  0  0  0  0  0  0  0  0
    0.4125   -1.4290    0.0000 C   0  0  0  0  0  0  0  0  0  0  0  0
   -0.8250    0.7144    0.0000 C   0  0  0  0  0  0  0  0  0  0  0  0
   -1.6500    0.7144    0.0000 C   0  0  0  0  0  0  0  0  0  0  0  0
   -2.0625   -0.0000    0.0000 C   0  0  0  0  0  0  0  0  0  0  0  0
   -1.6500   -0.7145    0.0000 C   0  0  0  0  0  0  0  0  0  0  0  0
    0.8250    0.7144    0.0000 C   0  0  0  0  0  0  0  0  0  0  0  0
    0.4125    1.4289    0.0000 O   0  0  0  0  0  0  0  0  0  0  0  0
   -0.4125    1.4289    0.0000 C   0  0  0  0  0  0  0  0  0  0  0  0
    1.6500   -0.7145    0.0000 C   0  0  0  0  0  0  0  0  0  0  0  0
    2.0625   -0.0000    0.0000 C   0  0  0  0  0  0  0  0  0  0  0  0
    1.6500    0.7144    0.0000 C   0  0  0  0  0  0  0  0  0  0  0  0
   -2.0625   -1.4290    0.0000 O   0  0  0  0  0  0  0  0  0  0  0  0
   -2.8875   -0.0000    0.0000 O   0  0  0  0  0  0  0  0  0  0  0  0
   -0.8250    2.1434    0.0000 O   0  0  0  0  0  0  0  0  0  0  0  0
    2.0625    1.4289    0.0000 O   0  0  0  0  0  0  0  0  0  0  0  0
    2.8875   -0.0000    0.0000 O   0  0  0  0  0  0  0  0  0  0  0  0
    0.8250   -2.1434    0.0000 O   0  0  0  0  0  0  0  0  0  0  0  0
  1  2  2  0
  1  6  1  0
  1 14  1  0
  2  3  1  0
 11  2  1  0
  3  4  2  0
  3  7  1  0
  4  5  1  0
 10  4  1  0
  6  5  1  0
  6 22  2  0
  7  8  2  0
 13  7  1  0
  8  9  1  0
 10  9  2  0
  9 18  1  0
 10 17  1  0
 11 12  1  0
 11 16  2  0
 13 12  1  0
 13 19  2  0
 14 15  2  0
 15 16  1  0
 15 21  1  0
 16 20  1  0
M  END