
     RDKit          2D

 24 26  0  0  0  0  0  0  0  0999 V2000
    1.9625   -1.2125    0.0000 C   0  0  0  0  0  0  0  0  0  0  0  0
    0.7292   -1.2125    0.0000 C   0  0  0  0  0  0  0  0  0  0  0  0
    1.3417   -0.8542    0.0000 C   0  0  0  0  0  0  0  0  0  0  0  0
    1.3417   -2.2750    0.0000 N   0  0  0  0  0  0  0  0  0  0  0  0
    0.7292   -1.9167    0.0000 C   0  0  0  0  0  0  0  0  0  0  0  0
    1.9625   -1.9167    0.0000 C   0  0  0  0  0  0  0  0  0  0  0  0
    0.1167   -2.2750    0.0000 C   0  0  0  0  0  0  0  0  0  0  0  0
   -0.5000   -1.9167    0.0000 C   0  0  0  0  0  0  0  0  0  0  0  0
    0.1167   -0.8542    0.0000 C   0  0  0  0  0  0  0  0  0  0  0  0
   -1.1125   -2.2750    0.0000 N   0  0  0  0  0  0  0  0  0  0  0  0
    2.5792   -0.8542    0.0000 C   0  0  0  0  0  0  0  0  0  0  0  0
   -0.5000   -1.2125    0.0000 C   0  0  0  0  0  0  0  0  0  0  0  0
   -2.3458   -2.9917    0.0000 N   0  0  0  0  0  0  0  0  0  0  0  0
    1.3417   -0.1417    0.0000 O   0  0  0  0  0  0  0  0  0  0  0  0
    1.3417   -2.9792    0.0000 N   0  0  0  0  0  0  0  0  0  0  0  0
   -1.7250   -1.9167    0.0000 C   0  0  0  0  0  0  0  0  0  0  0  0
   -1.1125   -2.9917    0.0000 C   0  0  0  0  0  0  0  0  0  0  0  0
    2.5792   -0.1417    0.0000 O   0  0  0  0  0  0  0  0  0  0  0  0
   -1.7250   -3.3417    0.0000 C   0  0  0  0  0  0  0  0  0  0  0  0
   -2.3458   -2.2750    0.0000 C   0  0  0  0  0  0  0  0  0  0  0  0
   -1.1208   -0.8542    0.0000 F   0  0  0  0  0  0  0  0  0  0  0  0
    3.1917   -1.2125    0.0000 O   0  0  0  0  0  0  0  0  0  0  0  0
   -2.9583   -3.3500    0.0000 C   0  0  0  0  0  0  0  0  0  0  0  0
    1.9542   -3.3375    0.0000 C   0  0  0  0  0  0  0  0  0  0  0  0
  2  3  1  0
  3  1  1  0
  4  6  1  0
  5  2  2  0
  6  1  2  0
  7  5  1  0
  8 12  1  0
  9  2  1  0
 10  8  1  0
 11  1  1  0
 12  9  2  0
 13 20  1  0
 14  3  2  0
 15  4  1  0
 16 10  1  0
 17 10  1  0
 18 11  2  0
 19 17  1  0
 20 16  1  0
 21 12  1  0
 22 11  1  0
 23 13  1  0
 24 15  1  0
  5  4  1  0
  7  8  2  0
 19 13  1  0
M  END