
     RDKit          2D

 11 11  0  0  0  0  0  0  0  0999 V2000
   -1.1083   -3.3500    0.0000 C   0  0  0  0  0  0  0  0  0  0  0  0
   -0.0708   -2.7417    0.0000 C   0  0  0  0  0  0  0  0  0  0  0  0
    0.4500   -2.4417    0.0000 C   0  0  0  0  0  0  0  0  0  0  0  0
   -1.6250   -3.6417    0.0000 I   0  0  0  0  0  0  0  0  0  0  0  0
    1.4875   -2.4375    0.0000 N   0  0  0  0  0  0  0  0  0  0  0  0
   -1.1083   -2.7500    0.0000 C   0  0  0  0  0  0  0  0  0  0  0  0
   -0.5875   -3.6500    0.0000 C   0  0  0  0  0  0  0  0  0  0  0  0
   -0.5875   -2.4417    0.0000 C   0  0  0  0  0  0  0  0  0  0  0  0
   -0.0708   -3.3500    0.0000 C   0  0  0  0  0  0  0  0  0  0  0  0
    0.9667   -2.7375    0.0000 C   0  0  0  0  0  0  0  0  0  0  0  0
    0.9667   -3.3375    0.0000 C   0  0  0  0  0  0  0  0  0  0  0  0
  2  9  1  0
  3  2  1  0
  4  1  1  0
  5 10  1  0
  6  1  2  0
  7  1  1  0
  8  6  1  0
  9  7  2  0
 10  3  1  0
 11 10  1  0
  2  8  2  0
M  END