
     RDKit          2D

 20 23  0  0  0  0  0  0  0  0999 V2000
    2.8875   -1.1042    0.0000 N   0  0  0  0  0  0  0  0  0  0  0  0
    2.1042   -1.1042    0.0000 C   0  0  0  0  0  0  0  0  0  0  0  0
    3.3417   -1.5292    0.0000 C   0  0  0  0  0  0  0  0  0  0  0  0
    2.0792    0.3083    0.0000 N   0  0  0  0  0  0  0  0  0  0  0  0
    1.6667   -1.5167    0.0000 C   0  0  0  0  0  0  0  0  0  0  0  0
    3.3292   -2.3250    0.0000 C   0  0  0  0  0  0  0  0  0  0  0  0
    1.6542   -2.3792    0.0000 C   0  0  0  0  0  0  0  0  0  0  0  0
    3.3000   -0.4042    0.0000 C   0  0  0  0  0  0  0  0  0  0  0  0
    1.6792   -0.4042    0.0000 C   0  0  0  0  0  0  0  0  0  0  0  0
    2.5250   -2.8500    0.0000 C   0  0  0  0  0  0  0  0  0  0  0  0
    2.8917    0.3083    0.0000 C   0  0  0  0  0  0  0  0  0  0  0  0
    1.5667    0.9583    0.0000 C   0  0  0  0  0  0  0  0  0  0  0  0
    4.0417   -1.0875    0.0000 C   0  0  0  0  0  0  0  0  0  0  0  0
    0.9292   -1.0542    0.0000 C   0  0  0  0  0  0  0  0  0  0  0  0
    0.9667   -2.8292    0.0000 C   0  0  0  0  0  0  0  0  0  0  0  0
    4.0750   -2.8000    0.0000 C   0  0  0  0  0  0  0  0  0  0  0  0
    0.2250   -1.5167    0.0000 C   0  0  0  0  0  0  0  0  0  0  0  0
    4.7542   -1.4875    0.0000 C   0  0  0  0  0  0  0  0  0  0  0  0
    4.7542   -2.3542    0.0000 C   0  0  0  0  0  0  0  0  0  0  0  0
    0.2250   -2.3625    0.0000 C   0  0  0  0  0  0  0  0  0  0  0  0
  2  1  1  0
  3  1  1  0
  4 11  1  0
  5  2  1  0
  6  3  2  0
  7  5  2  0
  8  1  1  0
  9  2  1  0
 10  6  1  0
 11  8  1  0
 12  4  1  0
 13  3  1  0
 14  5  1  0
 15  7  1  0
 16  6  1  0
 17 14  2  0
 18 13  2  0
 19 18  1  0
 20 17  1  0
  9  4  1  0
  7 10  1  0
 16 19  2  0
 15 20  2  0
M  END