
     RDKit          2D

 16 17  0  0  0  0  0  0  0  0999 V2000
   -2.7369   -0.0693    0.0000 N   0  0  0  0  0  0  0  0  0  0  0  0
    0.1827   -0.4818    0.0000 C   0  0  0  0  0  0  0  0  0  0  0  0
    0.1827    0.3432    0.0000 C   0  0  0  0  0  0  0  0  0  0  0  0
    0.8972    0.7557    0.0000 C   0  0  0  0  0  0  0  0  0  0  0  0
    1.6116    0.3432    0.0000 C   0  0  0  0  0  0  0  0  0  0  0  0
    3.0406    0.3432    0.0000 C   0  0  0  0  0  0  0  0  0  0  0  0
   -1.9119   -0.8943    0.0000 O   0  0  0  0  0  0  0  0  0  0  0  0
   -1.9119    0.7557    0.0000 O   0  0  0  0  0  0  0  0  0  0  0  0
   -1.9119   -0.0693    0.0000 S   0  0  0  0  0  0  0  0  0  0  0  0
   -1.0869   -0.0693    0.0000 C   0  0  0  0  0  0  0  0  0  0  0  0
   -0.6019   -0.7367    0.0000 N   0  0  0  0  0  0  0  0  0  0  0  0
   -0.6019    0.5982    0.0000 S   0  0  0  0  0  0  0  0  0  0  0  0
    1.6116   -0.4818    0.0000 C   0  0  0  0  0  0  0  0  0  0  0  0
    0.8972   -0.8943    0.0000 C   0  0  0  0  0  0  0  0  0  0  0  0
    2.3261    0.7557    0.0000 O   0  0  0  0  0  0  0  0  0  0  0  0
    3.7550    0.7557    0.0000 C   0  0  0  0  0  0  0  0  0  0  0  0
  1  9  1  0
  2  3  2  0
  2 11  1  0
  2 14  1  0
  3  4  1  0
  3 12  1  0
  4  5  2  0
  5 13  1  0
  5 15  1  0
  6 15  1  0
  6 16  1  0
  7  9  2  0
  8  9  2  0
 10  9  1  0
 10 11  2  0
 10 12  1  0
 13 14  2  0
M  END