
     RDKit          2D

 39 43  0  0  0  0  0  0  0  0999 V2000
    3.5963    1.5077    0.0000 C   0  0  0  0  0  0  0  0  0  0  0  0
    4.3108    1.0952    0.0000 C   0  0  0  0  0  0  0  0  0  0  0  0
    4.3108    0.2702    0.0000 C   0  0  0  0  0  0  0  0  0  0  0  0
    3.5963   -0.1423    0.0000 C   0  0  0  0  0  0  0  0  0  0  0  0
    2.1673   -0.1423    0.0000 C   0  0  0  0  0  0  0  0  0  0  0  0
    0.7384   -0.1423    0.0000 C   0  0  0  0  0  0  0  0  0  0  0  0
   -0.6905   -0.1423    0.0000 C   0  0  0  0  0  0  0  0  0  0  0  0
   -1.4050    0.2702    0.0000 C   0  0  0  0  0  0  0  0  0  0  0  0
   -1.4050    1.0952    0.0000 C   0  0  0  0  0  0  0  0  0  0  0  0
   -0.6905    1.5077    0.0000 C   0  0  0  0  0  0  0  0  0  0  0  0
    0.7384    1.5077    0.0000 C   0  0  0  0  0  0  0  0  0  0  0  0
    2.1673    1.5077    0.0000 C   0  0  0  0  0  0  0  0  0  0  0  0
   -2.2295    1.1240    0.0000 C   0  0  0  0  0  0  0  0  0  0  0  0
   -2.6667    0.4244    0.0000 C   0  0  0  0  0  0  0  0  0  0  0  0
    2.8818    1.0952    0.0000 C   0  0  0  0  0  0  0  0  0  0  0  0
    2.8818    0.2702    0.0000 C   0  0  0  0  0  0  0  0  0  0  0  0
    1.4529    0.2702    0.0000 C   0  0  0  0  0  0  0  0  0  0  0  0
    1.4529    1.0952    0.0000 C   0  0  0  0  0  0  0  0  0  0  0  0
    0.0239    1.0952    0.0000 C   0  0  0  0  0  0  0  0  0  0  0  0
    0.0239    0.2702    0.0000 C   0  0  0  0  0  0  0  0  0  0  0  0
    2.8818   -1.3798    0.0000 C   0  0  0  0  0  0  0  0  0  0  0  0
    3.5963   -0.9673    0.0000 O   0  0  0  0  0  0  0  0  0  0  0  0
    2.1673   -0.9673    0.0000 O   0  0  0  0  0  0  0  0  0  0  0  0
    0.7384   -0.9673    0.0000 O   0  0  0  0  0  0  0  0  0  0  0  0
   -0.6905   -0.9673    0.0000 O   0  0  0  0  0  0  0  0  0  0  0  0
   -1.8422    1.7949    0.0000 O   0  0  0  0  0  0  0  0  0  0  0  0
    0.7384    2.3327    0.0000 O   0  0  0  0  0  0  0  0  0  0  0  0
    2.1673    2.3327    0.0000 O   0  0  0  0  0  0  0  0  0  0  0  0
   -2.6168    1.8525    0.0000 O   0  0  0  0  0  0  0  0  0  0  0  0
   -3.4912    0.4532    0.0000 O   0  0  0  0  0  0  0  0  0  0  0  0
   -1.4050   -1.3798    0.0000 C   0  0  0  0  0  0  0  0  0  0  0  0
   -1.4050   -2.2048    0.0000 C   0  0  0  0  0  0  0  0  0  0  0  0
   -2.1195   -2.6173    0.0000 C   0  0  0  0  0  0  0  0  0  0  0  0
   -2.8340   -2.2048    0.0000 C   0  0  0  0  0  0  0  0  0  0  0  0
   -2.8340   -1.3798    0.0000 C   0  0  0  0  0  0  0  0  0  0  0  0
   -3.5484   -0.9673    0.0000 C   0  0  0  0  0  0  0  0  0  0  0  0
   -3.5484   -2.6173    0.0000 O   0  0  0  0  0  0  0  0  0  0  0  0
   -2.1195   -0.9673    0.0000 O   0  0  0  0  0  0  0  0  0  0  0  0
   -2.1195   -3.4423    0.0000 N   0  0  0  0  0  0  0  0  0  0  0  0
  1  2  2  0
  1 15  1  0
  2  3  1  0
  3  4  2  0
 16  4  1  0
  4 22  1  0
 16  5  1  0
 17  5  1  0
  5 23  2  0
 17  6  2  0
 20  6  1  0
  6 24  1  0
  7  8  1  0
 20  7  1  0
  7 25  1  1
  8  9  1  0
 10  9  1  0
  9 13  1  6
  9 26  1  1
 10 19  1  0
 11 18  2  0
 11 19  1  0
 11 27  1  0
 12 15  1  0
 12 18  1  0
 12 28  2  0
 13 14  1  0
 13 29  2  0
 14 30  1  0
 15 16  2  0
 17 18  1  0
 19 20  2  0
 21 22  1  0
 31 25  1  1
 31 32  1  0
 31 38  1  0
 32 33  1  0
 33 34  1  0
 33 39  1  6
 34 35  1  0
 34 37  1  1
 35 36  1  6
 35 38  1  0
M  END