
     RDKit          2D

 14 14  0  0  0  0  0  0  0  0999 V2000
    5.5660  -21.8955    0.0000 C   0  0  0  0  0  0  0  0  0  0  0  0
    6.2307  -22.3814    0.0000 S   0  0  0  0  0  0  0  0  0  0  0  0
    6.8983  -21.8995    0.0000 C   0  0  0  0  0  0  0  0  0  0  0  0
    6.6462  -21.1156    0.0000 N   0  0  0  0  0  0  0  0  0  0  0  0
    5.8229  -21.1132    0.0000 N   0  0  0  0  0  0  0  0  0  0  0  0
    7.6161  -22.3059    0.0000 S   0  0  0  0  0  0  0  0  0  0  0  0
    7.6236  -23.1310    0.0000 N   0  0  0  0  0  0  0  0  0  0  0  0
    7.9794  -21.5621    0.0000 O   0  0  0  0  0  0  0  0  0  0  0  0
    8.3528  -22.6694    0.0000 O   0  0  0  0  0  0  0  0  0  0  0  0
    5.3399  -20.4443    0.0000 C   0  0  0  0  0  0  0  0  0  0  0  0
    4.8548  -22.3124    0.0000 N   0  0  0  0  0  0  0  0  0  0  0  0
    4.1373  -21.9049    0.0000 C   0  0  0  0  0  0  0  0  0  0  0  0
    3.4256  -22.3225    0.0000 C   0  0  0  0  0  0  0  0  0  0  0  0
    4.1314  -21.0799    0.0000 O   0  0  0  0  0  0  0  0  0  0  0  0
  6  7  1  0
  2  3  1  0
  6  8  2  0
  3  4  2  0
  6  9  2  0
  4  5  1  0
  5 10  1  0
  5  1  1  0
  1 11  2  0
  1  2  1  0
 11 12  1  0
  3  6  1  0
 12 13  1  0
 12 14  2  0
M  END