
     RDKit          2D

 14 14  0  0  0  0  0  0  0  0999 V2000
    1.8882   -0.5009    0.0000 Cl  0  0  0  0  0  0  0  0  0  0  0  0
   -0.9696   -0.5009    0.0000 Cl  0  0  0  0  0  0  0  0  0  0  0  0
   -0.2552    0.7366    0.0000 N   0  0  0  0  0  0  0  0  0  0  0  0
   -0.2552    1.5616    0.0000 N   0  0  0  0  0  0  0  0  0  0  0  0
   -0.9696    2.7991    0.0000 N   0  0  0  0  0  0  0  0  0  0  0  0
   -1.6841    1.5616    0.0000 N   0  0  0  0  0  0  0  0  0  0  0  0
    0.4593   -0.5009    0.0000 C   0  0  0  0  0  0  0  0  0  0  0  0
    1.1738   -0.9134    0.0000 C   0  0  0  0  0  0  0  0  0  0  0  0
   -0.2552   -0.9134    0.0000 C   0  0  0  0  0  0  0  0  0  0  0  0
    0.4593    0.3241    0.0000 C   0  0  0  0  0  0  0  0  0  0  0  0
    1.1738   -1.7384    0.0000 C   0  0  0  0  0  0  0  0  0  0  0  0
   -0.2552   -1.7384    0.0000 C   0  0  0  0  0  0  0  0  0  0  0  0
    0.4593   -2.1509    0.0000 C   0  0  0  0  0  0  0  0  0  0  0  0
   -0.9696    1.9741    0.0000 C   0  0  0  0  0  0  0  0  0  0  0  0
  1  8  1  0
  2  9  1  0
  3  4  1  0
  3 10  2  0
  4 14  1  0
  5 14  2  0
 14  6  1  0
  7  8  2  0
  7  9  1  0
  7 10  1  0
  8 11  1  0
  9 12  2  0
 11 13  2  0
 12 13  1  0
M  END