
     RDKit          2D

 28 30  0  0  0  0  0  0  0  0999 V2000
   -1.2500   -3.8417    0.0000 S   0  0  0  0  0  0  0  0  0  0  0  0
   -1.9708   -3.4292    0.0000 N   0  0  0  0  0  0  0  0  0  0  0  0
    2.8250   -0.0417    0.0000 C   0  0  0  0  0  0  0  0  0  0  0  0
    2.4042    0.6708    0.0000 C   0  0  0  0  0  0  0  0  0  0  0  0
   -0.5375   -3.4292    0.0000 C   0  0  0  0  0  0  0  0  0  0  0  0
    2.4250   -2.1792    0.0000 N   0  0  0  0  0  0  0  0  0  0  0  0
    1.6000   -2.1792    0.0000 N   0  0  0  0  0  0  0  0  0  0  0  0
   -2.6833   -3.8500    0.0000 C   0  0  0  0  0  0  0  0  0  0  0  0
   -1.9708   -4.2500    0.0000 O   0  0  0  0  0  0  0  0  0  0  0  0
   -0.5375   -4.2542    0.0000 O   0  0  0  0  0  0  0  0  0  0  0  0
    3.6542   -0.0292    0.0000 C   0  0  0  0  0  0  0  0  0  0  0  0
    2.4167   -0.7542    0.0000 C   0  0  0  0  0  0  0  0  0  0  0  0
   -3.3958   -3.4375    0.0000 N   0  0  0  0  0  0  0  0  0  0  0  0
    1.5792    0.6625    0.0000 O   0  0  0  0  0  0  0  0  0  0  0  0
    2.8125    1.3875    0.0000 O   0  0  0  0  0  0  0  0  0  0  0  0
    2.8292   -1.4667    0.0000 C   0  0  0  0  0  0  0  0  0  0  0  0
   -0.5458   -2.6042    0.0000 C   0  0  0  0  0  0  0  0  0  0  0  0
    0.1750   -3.8417    0.0000 C   0  0  0  0  0  0  0  0  0  0  0  0
    4.0667   -0.7500    0.0000 C   0  0  0  0  0  0  0  0  0  0  0  0
    0.8875   -2.6000    0.0000 C   0  0  0  0  0  0  0  0  0  0  0  0
    3.6542   -1.4667    0.0000 C   0  0  0  0  0  0  0  0  0  0  0  0
    0.8875   -3.4250    0.0000 C   0  0  0  0  0  0  0  0  0  0  0  0
    0.1625   -2.1917    0.0000 C   0  0  0  0  0  0  0  0  0  0  0  0
    4.0542    0.6833    0.0000 O   0  0  0  0  0  0  0  0  0  0  0  0
   -4.1083   -3.8500    0.0000 C   0  0  0  0  0  0  0  0  0  0  0  0
   -2.6833   -4.6792    0.0000 C   0  0  0  0  0  0  0  0  0  0  0  0
   -4.1083   -4.6792    0.0000 C   0  0  0  0  0  0  0  0  0  0  0  0
   -3.3958   -5.0917    0.0000 C   0  0  0  0  0  0  0  0  0  0  0  0
  2  1  1  0
  3 12  2  0
  4  3  1  0
  5  1  1  0
  6  7  2  0
  7 20  1  0
  8  2  1  0
  9  1  2  0
 10  1  2  0
 11 19  2  0
 12 16  1  0
 13  8  2  0
 14  4  1  0
 15  4  2  0
 16  6  1  0
 17  5  1  0
 18  5  2  0
 19 21  1  0
 20 22  2  0
 21 16  2  0
 22 18  1  0
 23 17  2  0
 24 11  1  0
 25 13  1  0
 26  8  1  0
 27 28  1  0
 28 26  2  0
 20 23  1  0
 25 27  2  0
  3 11  1  0
M  END