
     RDKit          2D

 23 25  0  0  0  0  0  0  0  0999 V2000
    2.2375   -8.4917    0.0000 N   0  0  0  0  0  0  0  0  0  0  0  0
    2.7542   -8.1917    0.0000 C   0  0  0  0  0  0  0  0  0  0  0  0
    3.2750   -8.4917    0.0000 C   0  0  0  0  0  0  0  0  0  0  0  0
    2.2375   -9.1000    0.0000 C   0  0  0  0  0  0  0  0  0  0  0  0
    6.9042   -8.1625    0.0000 C   0  0  0  0  0  0  0  0  0  0  0  0
    2.7542   -9.4000    0.0000 N   0  0  0  0  0  0  0  0  0  0  0  0
    3.2750   -9.0917    0.0000 C   0  0  0  0  0  0  0  0  0  0  0  0
    6.3875   -8.4667    0.0000 C   0  0  0  0  0  0  0  0  0  0  0  0
    3.7917   -8.1917    0.0000 C   0  0  0  0  0  0  0  0  0  0  0  0
    4.8292   -8.1792    0.0000 S   0  0  0  0  0  0  0  0  0  0  0  0
    4.3125   -8.4875    0.0000 C   0  0  0  0  0  0  0  0  0  0  0  0
    5.8667   -8.1750    0.0000 C   0  0  0  0  0  0  0  0  0  0  0  0
    5.3542   -8.4792    0.0000 C   0  0  0  0  0  0  0  0  0  0  0  0
    3.7917   -9.3917    0.0000 C   0  0  0  0  0  0  0  0  0  0  0  0
    2.7500   -7.5917    0.0000 N   0  0  0  0  0  0  0  0  0  0  0  0
    7.3750   -7.8792    0.0000 F   0  0  0  0  0  0  0  0  0  0  0  0
    7.4917   -8.3792    0.0000 F   0  0  0  0  0  0  0  0  0  0  0  0
    7.0000   -7.5417    0.0000 F   0  0  0  0  0  0  0  0  0  0  0  0
    1.7167   -9.4000    0.0000 N   0  0  0  0  0  0  0  0  0  0  0  0
    4.3167   -9.0917    0.0000 C   0  0  0  0  0  0  0  0  0  0  0  0
    6.3917   -9.0667    0.0000 C   0  0  0  0  0  0  0  0  0  0  0  0
    5.8750   -9.3750    0.0000 C   0  0  0  0  0  0  0  0  0  0  0  0
    5.3542   -9.0792    0.0000 C   0  0  0  0  0  0  0  0  0  0  0  0
  2  1  2  0
  3  2  1  0
  4  1  1  0
  5  8  1  0
  6  4  2  0
  7  6  1  0
  8 12  2  0
  9  3  1  0
 10 11  1  0
 11  9  2  0
 12 13  1  0
 13 10  1  0
 14  7  1  0
 15  2  1  0
 16  5  1  0
 17  5  1  0
 18  5  1  0
 19  4  1  0
 20 14  2  0
 21 22  2  0
 22 23  1  0
 23 13  2  0
  3  7  2  0
 11 20  1  0
  8 21  1  0
M  END