
     RDKit          2D

 11 12  0  0  0  0  0  0  0  0999 V2000
   -1.1967   -0.3516    0.0000 C   0  0  0  0  0  0  0  0  0  0  0  0
   -1.1967    0.4734    0.0000 C   0  0  0  0  0  0  0  0  0  0  0  0
   -0.4823    0.8859    0.0000 C   0  0  0  0  0  0  0  0  0  0  0  0
    0.2322    0.4734    0.0000 C   0  0  0  0  0  0  0  0  0  0  0  0
    0.9467    0.8859    0.0000 C   0  0  0  0  0  0  0  0  0  0  0  0
    1.6612    0.4734    0.0000 C   0  0  0  0  0  0  0  0  0  0  0  0
    1.6612   -0.3516    0.0000 C   0  0  0  0  0  0  0  0  0  0  0  0
    0.9467   -0.7641    0.0000 C   0  0  0  0  0  0  0  0  0  0  0  0
    0.2322   -0.3516    0.0000 C   0  0  0  0  0  0  0  0  0  0  0  0
   -1.9112   -0.7641    0.0000 O   0  0  0  0  0  0  0  0  0  0  0  0
   -0.4823   -0.7641    0.0000 O   0  0  0  0  0  0  0  0  0  0  0  0
  1  2  1  0
  1 10  2  0
  1 11  1  0
  2  3  2  0
  3  4  1  0
  4  5  2  0
  4  9  1  0
  5  6  1  0
  6  7  2  0
  7  8  1  0
  8  9  2  0
  9 11  1  0
M  END