
     RDKit          2D

 19 21  0  0  0  0  0  0  0  0999 V2000
    4.8917   -3.3292    0.0000 N   0  0  0  0  0  0  0  0  0  0  0  0
    4.1167   -2.2292    0.0000 C   0  0  0  0  0  0  0  0  0  0  0  0
    4.1042   -3.0542    0.0000 C   0  0  0  0  0  0  0  0  0  0  0  0
    4.9042   -1.9917    0.0000 N   0  0  0  0  0  0  0  0  0  0  0  0
    5.3792   -2.6667    0.0000 C   0  0  0  0  0  0  0  0  0  0  0  0
    3.4167   -1.8042    0.0000 C   0  0  0  0  0  0  0  0  0  0  0  0
    3.3792   -3.4542    0.0000 N   0  0  0  0  0  0  0  0  0  0  0  0
    5.1292   -4.1167    0.0000 C   0  0  0  0  0  0  0  0  0  0  0  0
    2.6917   -2.2042    0.0000 N   0  0  0  0  0  0  0  0  0  0  0  0
    5.9292   -4.3042    0.0000 C   0  0  0  0  0  0  0  0  0  0  0  0
    2.6792   -3.0292    0.0000 C   0  0  0  0  0  0  0  0  0  0  0  0
    6.4917   -3.6917    0.0000 C   0  0  0  0  0  0  0  0  0  0  0  0
    3.4292   -0.9792    0.0000 N   0  0  0  0  0  0  0  0  0  0  0  0
    6.2417   -2.9042    0.0000 F   0  0  0  0  0  0  0  0  0  0  0  0
    6.1667   -5.0917    0.0000 C   0  0  0  0  0  0  0  0  0  0  0  0
    7.2917   -3.8792    0.0000 C   0  0  0  0  0  0  0  0  0  0  0  0
    2.7292   -0.5542    0.0000 C   0  0  0  0  0  0  0  0  0  0  0  0
    6.9667   -5.2792    0.0000 C   0  0  0  0  0  0  0  0  0  0  0  0
    7.5417   -4.6667    0.0000 C   0  0  0  0  0  0  0  0  0  0  0  0
  2  3  2  0
  3  1  1  0
  4  5  2  0
  5  1  1  0
  6  2  1  0
  7  3  1  0
  8  1  1  0
  9  6  2  0
 10  8  1  0
 11  7  2  0
 12 10  1  0
 13  6  1  0
 14 12  1  0
 15 10  2  0
 16 12  2  0
 17 13  1  0
 18 15  1  0
 19 18  2  0
  4  2  1  0
 11  9  1  0
 16 19  1  0
M  END