
     RDKit          2D

 11 12  0  0  0  0  0  0  0  0999 V2000
    6.1542   -2.0625    0.0000 C   0  0  0  0  0  0  0  0  0  0  0  0
    5.6292   -1.7625    0.0000 C   0  0  0  0  0  0  0  0  0  0  0  0
    5.1167   -2.0625    0.0000 N   0  0  0  0  0  0  0  0  0  0  0  0
    5.6292   -2.9667    0.0000 N   0  0  0  0  0  0  0  0  0  0  0  0
    5.1167   -2.6667    0.0000 C   0  0  0  0  0  0  0  0  0  0  0  0
    6.1542   -2.6625    0.0000 C   0  0  0  0  0  0  0  0  0  0  0  0
    5.6292   -1.1625    0.0000 N   0  0  0  0  0  0  0  0  0  0  0  0
    6.6667   -1.7542    0.0000 C   0  0  0  0  0  0  0  0  0  0  0  0
    6.6750   -2.9625    0.0000 C   0  0  0  0  0  0  0  0  0  0  0  0
    7.1917   -2.0542    0.0000 C   0  0  0  0  0  0  0  0  0  0  0  0
    7.1917   -2.6542    0.0000 C   0  0  0  0  0  0  0  0  0  0  0  0
  2  1  1  0
  3  2  2  0
  4  6  1  0
  5  4  2  0
  6  1  2  0
  7  2  1  0
  8  1  1  0
  9  6  1  0
 10  8  2  0
 11 10  1  0
  9 11  2  0
  3  5  1  0
M  END