
     RDKit          2D

 26 30  0  0  0  0  0  0  0  0999 V2000
   -2.8762    1.5291    0.0000 C   0  0  0  0  0  0  0  0  0  0  0  0
   -2.8774    0.7018    0.0000 C   0  0  0  0  0  0  0  0  0  0  0  0
   -2.1627    0.2890    0.0000 C   0  0  0  0  0  0  0  0  0  0  0  0
   -2.1645    1.9419    0.0000 C   0  0  0  0  0  0  0  0  0  0  0  0
   -1.4491    1.5327    0.0000 C   0  0  0  0  0  0  0  0  0  0  0  0
   -1.4503    0.6998    0.0000 C   0  0  0  0  0  0  0  0  0  0  0  0
   -0.0096    1.5307    0.0000 C   0  0  0  0  0  0  0  0  0  0  0  0
   -0.7311    1.9505    0.0000 O   0  0  0  0  0  0  0  0  0  0  0  0
   -0.0108    0.6977    0.0000 C   0  0  0  0  0  0  0  0  0  0  0  0
   -0.7280    0.2839    0.0000 C   0  0  0  0  0  0  0  0  0  0  0  0
   -0.5561   -0.5261    0.0000 O   0  0  0  0  0  0  0  0  0  0  0  0
    0.6043    0.1434    0.0000 C   0  0  0  0  0  0  0  0  0  0  0  0
    0.2653   -0.6095    0.0000 C   0  0  0  0  0  0  0  0  0  0  0  0
    1.9054   -0.4362    0.0000 C   0  0  0  0  0  0  0  0  0  0  0  0
    1.4210    0.2286    0.0000 C   0  0  0  0  0  0  0  0  0  0  0  0
    1.5687   -1.1936    0.0000 C   0  0  0  0  0  0  0  0  0  0  0  0
    0.7498   -1.2798    0.0000 C   0  0  0  0  0  0  0  0  0  0  0  0
    0.5786   -2.0854    0.0000 C   0  0  0  0  0  0  0  0  0  0  0  0
    1.2919   -2.4970    0.0000 C   0  0  0  0  0  0  0  0  0  0  0  0
    1.9037   -1.9459    0.0000 O   0  0  0  0  0  0  0  0  0  0  0  0
    0.7000    1.1166    0.0000 H   0  0  0  0  0  0  0  0  0  0  0  0
   -1.4457   -0.1208    0.0000 H   0  0  0  0  0  0  0  0  0  0  0  0
   -3.5908    1.9414    0.0000 O   0  0  0  0  0  0  0  0  0  0  0  0
    1.3782   -3.3175    0.0000 C   0  0  0  0  0  0  0  0  0  0  0  0
    0.7110   -3.8025    0.0000 C   0  0  0  0  0  0  0  0  0  0  0  0
    2.1320   -3.6529    0.0000 C   0  0  0  0  0  0  0  0  0  0  0  0
  2  3  1  0
 12 13  2  0
 13 17  1  0
  3  6  2  0
 16 14  1  0
  1  2  2  0
 14 15  2  0
 15 12  1  0
 16 17  2  0
  5  8  1  0
  6 10  1  0
  9  7  1  0
  7  8  1  0
  9 10  1  0
 17 18  1  0
 18 19  2  0
 19 20  1  0
 20 16  1  0
  5  4  2  0
  9 21  1  6
  4  1  1  0
 10 22  1  6
  5  6  1  0
  1 23  1  0
 10 11  1  0
 19 24  1  0
 11 13  1  0
 24 25  2  0
 12  9  1  0
 24 26  1  0
M  END