
     RDKit          2D

 28 31  0  0  0  0  0  0  0  0999 V2000
    2.1875   -1.3500    0.0000 N   0  0  0  0  0  0  0  0  0  0  0  0
    1.5667   -1.0042    0.0000 C   0  0  0  0  0  0  0  0  0  0  0  0
    2.1792    0.0708    0.0000 S   0  0  0  0  0  0  0  0  0  0  0  0
   -0.2625   -1.3792    0.0000 C   0  0  0  0  0  0  0  0  0  0  0  0
    1.5667   -0.2917    0.0000 C   0  0  0  0  0  0  0  0  0  0  0  0
    2.8042   -0.9917    0.0000 C   0  0  0  0  0  0  0  0  0  0  0  0
    2.8000   -0.2792    0.0000 C   0  0  0  0  0  0  0  0  0  0  0  0
    0.9667   -1.3667    0.0000 C   0  0  0  0  0  0  0  0  0  0  0  0
    0.3417   -1.0250    0.0000 C   0  0  0  0  0  0  0  0  0  0  0  0
    0.9875   -3.4875    0.0000 N   0  0  0  0  0  0  0  0  0  0  0  0
   -0.2375   -4.2042    0.0000 N   0  0  0  0  0  0  0  0  0  0  0  0
    0.9542    0.0500    0.0000 C   0  0  0  0  0  0  0  0  0  0  0  0
    0.3417   -0.3125    0.0000 C   0  0  0  0  0  0  0  0  0  0  0  0
   -0.8833   -1.0292    0.0000 F   0  0  0  0  0  0  0  0  0  0  0  0
    0.0792   -1.9917    0.0000 F   0  0  0  0  0  0  0  0  0  0  0  0
   -0.6208   -1.9917    0.0000 F   0  0  0  0  0  0  0  0  0  0  0  0
    2.1958   -2.0625    0.0000 C   0  0  0  0  0  0  0  0  0  0  0  0
    0.3792   -4.5625    0.0000 C   0  0  0  0  0  0  0  0  0  0  0  0
   -0.2458   -3.5000    0.0000 C   0  0  0  0  0  0  0  0  0  0  0  0
    0.9917   -4.1958    0.0000 C   0  0  0  0  0  0  0  0  0  0  0  0
    0.3667   -3.1375    0.0000 C   0  0  0  0  0  0  0  0  0  0  0  0
    1.5917   -2.4167    0.0000 C   0  0  0  0  0  0  0  0  0  0  0  0
    1.6000   -3.1250    0.0000 C   0  0  0  0  0  0  0  0  0  0  0  0
    3.4167   -1.3375    0.0000 C   0  0  0  0  0  0  0  0  0  0  0  0
    3.4125    0.0833    0.0000 C   0  0  0  0  0  0  0  0  0  0  0  0
   -0.8500   -4.5750    0.0000 C   0  0  0  0  0  0  0  0  0  0  0  0
    4.0375   -0.9750    0.0000 C   0  0  0  0  0  0  0  0  0  0  0  0
    4.0292   -0.2667    0.0000 C   0  0  0  0  0  0  0  0  0  0  0  0
  2  1  1  0
  3  7  1  0
  4  9  1  0
  5  2  1  0
  6  1  1  0
  7  6  2  0
  8  2  2  0
  9  8  1  0
 10 23  1  0
 11 19  1  0
 12  5  2  0
 13  9  2  0
 14  4  1  0
 15  4  1  0
 16  4  1  0
 17  1  1  0
 18 20  1  0
 19 21  1  0
 20 10  1  0
 21 10  1  0
 22 17  1  0
 23 22  1  0
 24  6  1  0
 25  7  1  0
 26 11  1  0
 27 24  2  0
 28 27  1  0
  5  3  1  0
 25 28  2  0
 12 13  1  0
 18 11  1  0
M  END