
     RDKit          2D

 13 13  0  0  0  0  0  0  0  0999 V2000
    6.3042   -4.9375    0.0000 C   0  0  0  0  0  0  0  0  0  0  0  0
    6.9250   -4.5792    0.0000 S   0  0  0  0  0  0  0  0  0  0  0  0
    5.7375   -4.5167    0.0000 S   0  0  0  0  0  0  0  0  0  0  0  0
    5.1625   -4.9375    0.0000 C   0  0  0  0  0  0  0  0  0  0  0  0
    6.0875   -5.6125    0.0000 N   0  0  0  0  0  0  0  0  0  0  0  0
    5.3792   -5.6125    0.0000 N   0  0  0  0  0  0  0  0  0  0  0  0
    4.5500   -4.5792    0.0000 N   0  0  0  0  0  0  0  0  0  0  0  0
    7.5417   -4.9292    0.0000 N   0  0  0  0  0  0  0  0  0  0  0  0
    3.9292   -4.9250    0.0000 C   0  0  0  0  0  0  0  0  0  0  0  0
    6.5750   -3.9667    0.0000 O   0  0  0  0  0  0  0  0  0  0  0  0
    7.2792   -3.9667    0.0000 O   0  0  0  0  0  0  0  0  0  0  0  0
    3.9250   -5.6292    0.0000 O   0  0  0  0  0  0  0  0  0  0  0  0
    3.3250   -4.5625    0.0000 C   0  0  0  0  0  0  0  0  0  0  0  0
  2  1  1  0
  3  1  1  0
  4  3  1  0
  5  1  2  0
  6  5  1  0
  7  4  1  0
  8  2  1  0
  9  7  1  0
 10  2  2  0
 11  2  2  0
 12  9  2  0
 13  9  1  0
  6  4  2  0
M  END