
     RDKit          2D

 12 12  0  0  0  0  0  0  0  0999 V2000
    3.0643   -1.3406    0.0000 S   0  0  0  0  0  0  0  0  0  0  0  0
    3.0643   -2.1656    0.0000 O   0  0  0  0  0  0  0  0  0  0  0  0
    3.8893   -1.3406    0.0000 O   0  0  0  0  0  0  0  0  0  0  0  0
    2.2393   -1.3406    0.0000 N   0  0  0  0  0  0  0  0  0  0  0  0
    2.3498    2.3719    0.0000 N   0  0  0  0  0  0  0  0  0  0  0  0
    3.0643   -0.5156    0.0000 C   0  0  0  0  0  0  0  0  0  0  0  0
    2.3498   -0.1031    0.0000 C   0  0  0  0  0  0  0  0  0  0  0  0
    3.7788   -0.1031    0.0000 C   0  0  0  0  0  0  0  0  0  0  0  0
    3.0643    1.1344    0.0000 C   0  0  0  0  0  0  0  0  0  0  0  0
    2.3498    0.7219    0.0000 C   0  0  0  0  0  0  0  0  0  0  0  0
    3.7788    0.7219    0.0000 C   0  0  0  0  0  0  0  0  0  0  0  0
    3.0643    1.9594    0.0000 C   0  0  0  0  0  0  0  0  0  0  0  0
  1  2  2  0
  1  3  2  0
  1  4  1  0
  1  6  1  0
  5 12  1  0
  6  7  2  0
  6  8  1  0
  7 10  1  0
  8 11  2  0
  9 10  2  0
  9 11  1  0
  9 12  1  0
M  END