
     RDKit          2D

 21 22  0  0  0  0  0  0  0  0999 V2000
    1.9211    2.0460    0.0000 N   0  0  0  0  0  0  0  0  0  0  0  0
    1.2066    2.4585    0.0000 C   0  0  0  0  0  0  0  0  0  0  0  0
    1.2066    3.2835    0.0000 N   0  0  0  0  0  0  0  0  0  0  0  0
    0.4921    2.0460    0.0000 N   0  0  0  0  0  0  0  0  0  0  0  0
    0.4921    1.2210    0.0000 C   0  0  0  0  0  0  0  0  0  0  0  0
   -0.2223    0.8085    0.0000 N   0  0  0  0  0  0  0  0  0  0  0  0
    1.2066    0.8085    0.0000 C   0  0  0  0  0  0  0  0  0  0  0  0
    1.9211    1.2210    0.0000 C   0  0  0  0  0  0  0  0  0  0  0  0
    1.2066   -0.0165    0.0000 C   0  0  0  0  0  0  0  0  0  0  0  0
    0.4921   -0.4290    0.0000 C   0  0  0  0  0  0  0  0  0  0  0  0
    0.4921   -1.2540    0.0000 C   0  0  0  0  0  0  0  0  0  0  0  0
   -0.2223   -1.6665    0.0000 C   0  0  0  0  0  0  0  0  0  0  0  0
   -0.9368   -1.2540    0.0000 C   0  0  0  0  0  0  0  0  0  0  0  0
   -0.9368   -0.4290    0.0000 C   0  0  0  0  0  0  0  0  0  0  0  0
   -0.2223   -0.0165    0.0000 C   0  0  0  0  0  0  0  0  0  0  0  0
   -0.2223   -2.4915    0.0000 O   0  0  0  0  0  0  0  0  0  0  0  0
   -1.6513   -1.6665    0.0000 O   0  0  0  0  0  0  0  0  0  0  0  0
   -1.6513   -0.0165    0.0000 O   0  0  0  0  0  0  0  0  0  0  0  0
   -0.9368   -2.9040    0.0000 C   0  0  0  0  0  0  0  0  0  0  0  0
   -1.6513   -2.4915    0.0000 C   0  0  0  0  0  0  0  0  0  0  0  0
   -1.6513    0.8085    0.0000 C   0  0  0  0  0  0  0  0  0  0  0  0
  2  1  2  0
  8  1  1  0
  2  3  1  0
  2  4  1  0
  5  4  2  0
  5  6  1  0
  5  7  1  0
  7  8  2  0
  7  9  1  0
 10  9  1  0
 10 11  2  0
 10 15  1  0
 11 12  1  0
 12 13  2  0
 12 16  1  0
 13 14  1  0
 13 17  1  0
 14 15  2  0
 14 18  1  0
 19 16  1  0
 20 17  1  0
 21 18  1  0
M  END