
     RDKit          2D

 13 13  0  0  0  0  0  0  0  0999 V2000
    8.8810   -2.1206    0.0000 C   0  0  0  0  0  0  0  0  0  0  0  0
    8.8798   -2.9479    0.0000 C   0  0  0  0  0  0  0  0  0  0  0  0
    9.5946   -3.3607    0.0000 C   0  0  0  0  0  0  0  0  0  0  0  0
   10.3110   -2.9474    0.0000 C   0  0  0  0  0  0  0  0  0  0  0  0
   10.3081   -2.1170    0.0000 C   0  0  0  0  0  0  0  0  0  0  0  0
    9.5928   -1.7078    0.0000 C   0  0  0  0  0  0  0  0  0  0  0  0
   11.0210   -1.7018    0.0000 C   0  0  0  0  0  0  0  0  0  0  0  0
   11.7369   -2.1116    0.0000 O   0  0  0  0  0  0  0  0  0  0  0  0
   11.0260   -3.3588    0.0000 O   0  0  0  0  0  0  0  0  0  0  0  0
   11.0273   -4.1837    0.0000 C   0  0  0  0  0  0  0  0  0  0  0  0
   11.7423   -4.5949    0.0000 C   0  0  0  0  0  0  0  0  0  0  0  0
   10.3136   -4.5972    0.0000 O   0  0  0  0  0  0  0  0  0  0  0  0
   11.0178   -0.8769    0.0000 O   0  0  0  0  0  0  0  0  0  0  0  0
  1  2  2  0
  5  7  1  0
  3  4  2  0
  7  8  2  0
  4  9  1  0
  4  5  1  0
  9 10  1  0
  2  3  1  0
 10 11  1  0
  5  6  2  0
 10 12  2  0
  6  1  1  0
  7 13  1  0
M  END