
     RDKit          2D

 25 28  0  0  0  0  0  0  0  0999 V2000
    3.0158  -23.9667    0.0000 C   0  0  0  0  0  0  0  0  0  0  0  0
    3.0146  -24.7924    0.0000 C   0  0  0  0  0  0  0  0  0  0  0  0
    3.7256  -23.5527    0.0000 C   0  0  0  0  0  0  0  0  0  0  0  0
    4.4389  -23.9631    0.0000 C   0  0  0  0  0  0  0  0  0  0  0  0
    5.8653  -24.7919    0.0000 C   0  0  0  0  0  0  0  0  0  0  0  0
    5.1510  -23.5463    0.0000 C   0  0  0  0  0  0  0  0  0  0  0  0
    5.8623  -23.9668    0.0000 C   0  0  0  0  0  0  0  0  0  0  0  0
    6.5760  -23.5597    0.0000 N   0  0  0  0  0  0  0  0  0  0  0  0
    6.5847  -22.7347    0.0000 C   0  0  0  0  0  0  0  0  0  0  0  0
    5.8734  -22.3185    0.0000 C   0  0  0  0  0  0  0  0  0  0  0  0
    5.1535  -22.7230    0.0000 C   0  0  0  0  0  0  0  0  0  0  0  0
    5.8807  -21.4952    0.0000 C   0  0  0  0  0  0  0  0  0  0  0  0
    6.5966  -21.0877    0.0000 N   0  0  0  0  0  0  0  0  0  0  0  0
    5.1719  -21.0752    0.0000 O   0  0  0  0  0  0  0  0  0  0  0  0
    7.2888  -23.9800    0.0000 C   0  0  0  0  0  0  0  0  0  0  0  0
    5.8548  -23.1435    0.0000 H   0  0  0  0  0  0  0  0  0  0  0  0
    4.4377  -24.7899    0.0000 C   0  0  0  0  0  0  0  0  0  0  0  0
    3.7286  -25.2050    0.0000 C   0  0  0  0  0  0  0  0  0  0  0  0
    3.9071  -26.0088    0.0000 N   0  0  0  0  0  0  0  0  0  0  0  0
    4.7264  -26.0888    0.0000 C   0  0  0  0  0  0  0  0  0  0  0  0
    5.1488  -25.2008    0.0000 C   0  0  0  0  0  0  0  0  0  0  0  0
    7.3106  -21.5060    0.0000 C   0  0  0  0  0  0  0  0  0  0  0  0
    8.0299  -21.0967    0.0000 C   0  0  0  0  0  0  0  0  0  0  0  0
    6.6018  -20.2603    0.0000 C   0  0  0  0  0  0  0  0  0  0  0  0
    7.3210  -19.8511    0.0000 C   0  0  0  0  0  0  0  0  0  0  0  0
 12 13  1  0
  5  7  1  0
 12 14  2  0
  6  7  1  0
  8 15  1  0
  7 16  1  1
 17 18  2  0
  4  3  2  0
  3  1  1  0
  4 17  1  0
  1  2  2  0
  2 18  1  0
 18 19  1  0
 19 20  1  0
 20 21  2  0
 21 17  1  0
  6 11  2  0
  7  8  1  0
 13 22  1  0
  8  9  1  0
 22 23  1  0
  9 10  1  0
 13 24  1  0
 10 11  1  0
 24 25  1  0
  4  6  1  0
 10 12  1  1
 21  5  1  0
M  END