
     RDKit          2D

 21 23  0  0  0  0  0  0  0  0999 V2000
    5.6542   -5.9250    0.0000 N   0  0  0  0  0  0  0  0  0  0  0  0
    6.3000   -5.6167    0.0000 C   0  0  0  0  0  0  0  0  0  0  0  0
    5.0167   -5.6042    0.0000 C   0  0  0  0  0  0  0  0  0  0  0  0
    6.4667   -4.9292    0.0000 C   0  0  0  0  0  0  0  0  0  0  0  0
    4.8750   -4.9042    0.0000 C   0  0  0  0  0  0  0  0  0  0  0  0
    6.0417   -4.3792    0.0000 C   0  0  0  0  0  0  0  0  0  0  0  0
    5.3292   -4.3625    0.0000 C   0  0  0  0  0  0  0  0  0  0  0  0
    5.6500   -6.6167    0.0000 C   0  0  0  0  0  0  0  0  0  0  0  0
    5.0250   -6.9667    0.0000 C   0  0  0  0  0  0  0  0  0  0  0  0
    4.3875   -8.0250    0.0000 N   0  0  0  0  0  0  0  0  0  0  0  0
    4.5042   -6.0750    0.0000 C   0  0  0  0  0  0  0  0  0  0  0  0
    6.8167   -6.1125    0.0000 C   0  0  0  0  0  0  0  0  0  0  0  0
    5.0042   -7.6792    0.0000 C   0  0  0  0  0  0  0  0  0  0  0  0
    4.2000   -4.6917    0.0000 C   0  0  0  0  0  0  0  0  0  0  0  0
    7.1542   -4.7292    0.0000 C   0  0  0  0  0  0  0  0  0  0  0  0
    4.3792   -8.7375    0.0000 C   0  0  0  0  0  0  0  0  0  0  0  0
    3.7792   -7.6625    0.0000 C   0  0  0  0  0  0  0  0  0  0  0  0
    3.8250   -5.8542    0.0000 C   0  0  0  0  0  0  0  0  0  0  0  0
    7.4917   -5.9167    0.0000 C   0  0  0  0  0  0  0  0  0  0  0  0
    7.6667   -5.2292    0.0000 C   0  0  0  0  0  0  0  0  0  0  0  0
    3.6750   -5.1542    0.0000 C   0  0  0  0  0  0  0  0  0  0  0  0
  2  1  1  0
  3  1  1  0
  4  2  2  0
  5  3  1  0
  6  4  1  0
  7  5  1  0
  8  1  1  0
  9  8  1  0
 10 13  1  0
 11  3  2  0
 12  2  1  0
 13  9  1  0
 14  5  2  0
 15  4  1  0
 16 10  1  0
 17 10  1  0
 18 11  1  0
 19 12  2  0
 20 19  1  0
 21 18  2  0
  7  6  1  0
 21 14  1  0
 20 15  2  0
M  END