
     RDKit          2D

 22 24  0  0  0  0  0  0  0  0999 V2000
   11.5447  -16.0718    0.0000 C   0  0  0  0  0  0  0  0  0  0  0  0
   10.7326  -15.8927    0.0000 N   0  0  0  0  0  0  0  0  0  0  0  0
   11.9612  -15.3596    0.0000 C   0  0  0  0  0  0  0  0  0  0  0  0
   10.0871  -17.2421    0.0000 C   0  0  0  0  0  0  0  0  0  0  0  0
   11.4115  -14.7349    0.0000 N   0  0  0  0  0  0  0  0  0  0  0  0
   10.7368  -17.7544    0.0000 C   0  0  0  0  0  0  0  0  0  0  0  0
   10.0871  -16.4175    0.0000 C   0  0  0  0  0  0  0  0  0  0  0  0
   11.5489  -17.5669    0.0000 N   0  0  0  0  0  0  0  0  0  0  0  0
   10.6493  -15.0598    0.0000 C   0  0  0  0  0  0  0  0  0  0  0  0
   11.8987  -16.8173    0.0000 C   0  0  0  0  0  0  0  0  0  0  0  0
   12.7858  -15.3347    0.0000 C   0  0  0  0  0  0  0  0  0  0  0  0
    9.3749  -17.6586    0.0000 C   0  0  0  0  0  0  0  0  0  0  0  0
    9.3749  -16.0094    0.0000 C   0  0  0  0  0  0  0  0  0  0  0  0
   10.5619  -18.5540    0.0000 O   0  0  0  0  0  0  0  0  0  0  0  0
   13.1814  -14.6100    0.0000 O   0  0  0  0  0  0  0  0  0  0  0  0
    8.6627  -17.2463    0.0000 C   0  0  0  0  0  0  0  0  0  0  0  0
    8.6627  -16.4217    0.0000 C   0  0  0  0  0  0  0  0  0  0  0  0
   13.2231  -16.0343    0.0000 O   0  0  0  0  0  0  0  0  0  0  0  0
   12.0612  -18.2041    0.0000 C   0  0  0  0  0  0  0  0  0  0  0  0
    7.9506  -17.6586    0.0000 F   0  0  0  0  0  0  0  0  0  0  0  0
   14.0436  -16.0094    0.0000 C   0  0  0  0  0  0  0  0  0  0  0  0
   14.4726  -16.7090    0.0000 C   0  0  0  0  0  0  0  0  0  0  0  0
  2  1  1  0
  3  1  2  0
  4  7  1  0
  5  3  1  0
  6  8  1  0
  7  2  1  0
  8 10  1  0
  9  2  1  0
 10  1  1  0
 11  3  1  0
 12  4  2  0
 13  7  2  0
 14  6  2  0
 15 11  2  0
 16 17  2  0
 17 13  1  0
 18 11  1  0
 19  8  1  0
 20 16  1  0
 21 18  1  0
 22 21  1  0
  5  9  2  0
  4  6  1  0
 16 12  1  0
M  END