
     RDKit          2D

 20 22  0  0  0  0  0  0  0  0999 V2000
    2.8552   -0.6517    0.0000 C   0  0  0  0  0  0  0  0  0  0  0  0
    1.6852   -0.3846    0.0000 N   0  0  0  0  0  0  0  0  0  0  0  0
    1.3514    1.0778    0.0000 C   0  0  0  0  0  0  0  0  0  0  0  0
    2.2896    1.8259    0.0000 O   0  0  0  0  0  0  0  0  0  0  0  0
    0.0000    1.7286    0.0000 C   0  0  0  0  0  0  0  0  0  0  0  0
   -1.3515    1.0777    0.0000 N   0  0  0  0  0  0  0  0  0  0  0  0
   -1.6852   -0.3847    0.0000 C   0  0  0  0  0  0  0  0  0  0  0  0
   -3.1484   -0.7186    0.0000 C   0  0  0  0  0  0  0  0  0  0  0  0
   -4.1145    0.4339    0.0000 C   0  0  0  0  0  0  0  0  0  0  0  0
   -5.5920    0.1754    0.0000 C   0  0  0  0  0  0  0  0  0  0  0  0
   -6.1069   -1.2335    0.0000 C   0  0  0  0  0  0  0  0  0  0  0  0
   -5.1442   -2.3838    0.0000 C   0  0  0  0  0  0  0  0  0  0  0  0
   -3.6667   -2.1253    0.0000 C   0  0  0  0  0  0  0  0  0  0  0  0
   -0.7500   -1.5574    0.0000 C   0  0  0  0  0  0  0  0  0  0  0  0
   -1.5000   -2.8577    0.0000 C   0  0  0  0  0  0  0  0  0  0  0  0
   -0.7500   -4.1567    0.0000 C   0  0  0  0  0  0  0  0  0  0  0  0
   -1.3500   -5.1960    0.0000 Cl  0  0  0  0  0  0  0  0  0  0  0  0
    0.7500   -4.1567    0.0000 C   0  0  0  0  0  0  0  0  0  0  0  0
    1.5000   -2.8577    0.0000 C   0  0  0  0  0  0  0  0  0  0  0  0
    0.7500   -1.5574    0.0000 C   0  0  0  0  0  0  0  0  0  0  0  0
  1  2  1  0
  2  3  1  0
  3  4  2  0
  3  5  1  0
  5  6  1  0
  6  7  2  0
  7  8  1  0
  8  9  2  0
  9 10  1  0
 10 11  2  0
 11 12  1  0
 12 13  2  0
 13  8  1  0
  7 14  1  0
 14 15  2  0
 15 16  1  0
 16 17  1  0
 16 18  2  0
 18 19  1  0
 19 20  2  0
 20  2  1  0
 20 14  1  0
M  END