
     RDKit          2D

 13 14  0  0  1  0  0  0  0  0999 V2000
    0.4868   -1.4892    0.0000 O   0  0  0  0  0  0  0  0  0  0  0  0
    0.4868   -0.1609    0.0000 O   0  0  0  0  0  0  0  0  0  0  0  0
    4.1251   -2.8876    0.0000 N   0  0  0  0  0  0  0  0  0  0  0  0
    1.2705   -1.2417    0.0000 C   0  0  0  0  0  0  0  0  0  0  0  0
    1.2705   -0.4167    0.0000 C   0  0  0  0  0  0  0  0  0  0  0  0
    2.6978   -1.2417    0.0000 C   0  0  0  0  0  0  0  0  0  0  0  0
    1.9841   -1.6500    0.0000 C   0  0  0  0  0  0  0  0  0  0  0  0
    1.9841    0.0000    0.0000 C   0  0  0  0  0  0  0  0  0  0  0  0
    2.6978   -0.4167    0.0000 C   0  0  0  0  0  0  0  0  0  0  0  0
    0.0000   -0.8250    0.0000 C   0  0  0  0  0  0  0  0  0  0  0  0
    3.4114   -1.6500    0.0000 C   0  0  0  0  0  0  0  0  0  0  0  0
    3.4114   -2.4709    0.0000 C   0  0  0  0  0  0  0  0  0  0  0  0
    2.6978   -2.8876    0.0000 C   0  0  0  0  0  0  0  0  0  0  0  0
  1  4  1  0
  1 10  1  0
  2  5  1  0
  2 10  1  0
  3 12  1  0
  4  5  2  0
  4  7  1  0
  5  8  1  0
  6  7  2  0
  6  9  1  0
  6 11  1  0
  8  9  2  0
 11 12  1  0
 12 13  1  0
M  END