
     RDKit          2D

 22 24  0  0  0  0  0  0  0  0999 V2000
    4.3875   -1.3542    0.0000 C   0  0  0  0  0  0  0  0  0  0  0  0
    3.6167   -1.0375    0.0000 N   0  0  0  0  0  0  0  0  0  0  0  0
    4.9167   -0.7292    0.0000 C   0  0  0  0  0  0  0  0  0  0  0  0
    2.7542   -2.2500    0.0000 C   0  0  0  0  0  0  0  0  0  0  0  0
    4.4917   -0.0292    0.0000 N   0  0  0  0  0  0  0  0  0  0  0  0
    3.3000   -2.8625    0.0000 C   0  0  0  0  0  0  0  0  0  0  0  0
    2.9000   -1.4292    0.0000 C   0  0  0  0  0  0  0  0  0  0  0  0
    4.1125   -2.8125    0.0000 N   0  0  0  0  0  0  0  0  0  0  0  0
    3.6875   -0.2167    0.0000 C   0  0  0  0  0  0  0  0  0  0  0  0
    4.5917   -2.1417    0.0000 C   0  0  0  0  0  0  0  0  0  0  0  0
    5.7417   -0.7792    0.0000 C   0  0  0  0  0  0  0  0  0  0  0  0
    1.9792   -2.5375    0.0000 C   0  0  0  0  0  0  0  0  0  0  0  0
    2.2542   -0.9042    0.0000 C   0  0  0  0  0  0  0  0  0  0  0  0
    2.9875   -3.6292    0.0000 O   0  0  0  0  0  0  0  0  0  0  0  0
    6.2042   -0.0917    0.0000 O   0  0  0  0  0  0  0  0  0  0  0  0
    1.3417   -2.0125    0.0000 C   0  0  0  0  0  0  0  0  0  0  0  0
    1.4792   -1.1917    0.0000 C   0  0  0  0  0  0  0  0  0  0  0  0
    6.1125   -1.5250    0.0000 O   0  0  0  0  0  0  0  0  0  0  0  0
    4.5042   -3.5417    0.0000 C   0  0  0  0  0  0  0  0  0  0  0  0
    0.5750   -2.2917    0.0000 Cl  0  0  0  0  0  0  0  0  0  0  0  0
    6.9292   -1.5750    0.0000 C   0  0  0  0  0  0  0  0  0  0  0  0
    7.3000   -2.3167    0.0000 C   0  0  0  0  0  0  0  0  0  0  0  0
  2  1  1  0
  3  1  2  0
  4  7  2  0
  5  3  1  0
  6  8  1  0
  7  2  1  0
  8 10  1  0
  9  2  1  0
 10  1  1  0
 11  3  1  0
 12  4  1  0
 13  7  1  0
 14  6  2  0
 15 11  2  0
 16 17  1  0
 17 13  2  0
 18 11  1  0
 19  8  1  0
 20 16  1  0
 21 18  1  0
 22 21  1  0
  5  9  2  0
  4  6  1  0
 16 12  2  0
M  END