
     RDKit          2D

 31 34  0  0  0  0  0  0  0  0999 V2000
   -3.5931    0.0959    0.0000 C   0  0  0  0  0  0  0  0  0  0  0  0
   -3.5943   -0.7315    0.0000 C   0  0  0  0  0  0  0  0  0  0  0  0
   -2.8794   -1.1444    0.0000 C   0  0  0  0  0  0  0  0  0  0  0  0
   -2.8812    0.5086    0.0000 C   0  0  0  0  0  0  0  0  0  0  0  0
   -2.8837    1.3336    0.0000 C   0  0  0  0  0  0  0  0  0  0  0  0
   -4.3077    0.5082    0.0000 C   0  0  0  0  0  0  0  0  0  0  0  0
   -4.3091   -1.1434    0.0000 O   0  0  0  0  0  0  0  0  0  0  0  0
   -2.8796   -1.9694    0.0000 C   0  0  0  0  0  0  0  0  0  0  0  0
   -2.1659    0.0995    0.0000 C   0  0  0  0  0  0  0  0  0  0  0  0
   -2.1671   -0.7336    0.0000 C   0  0  0  0  0  0  0  0  0  0  0  0
   -1.4502   -1.1488    0.0000 C   0  0  0  0  0  0  0  0  0  0  0  0
   -0.7275   -0.7356    0.0000 C   0  0  0  0  0  0  0  0  0  0  0  0
   -0.7263    0.0974    0.0000 C   0  0  0  0  0  0  0  0  0  0  0  0
   -1.4478    0.5173    0.0000 O   0  0  0  0  0  0  0  0  0  0  0  0
   -0.0108    0.5082    0.0000 C   0  0  0  0  0  0  0  0  0  0  0  0
    0.7026    0.0939    0.0000 O   0  0  0  0  0  0  0  0  0  0  0  0
    1.4181    0.5047    0.0000 C   0  0  0  0  0  0  0  0  0  0  0  0
    2.1272    0.0881    0.0000 C   0  0  0  0  0  0  0  0  0  0  0  0
    2.8422    0.4981    0.0000 C   0  0  0  0  0  0  0  0  0  0  0  0
    2.8447    1.3240    0.0000 C   0  0  0  0  0  0  0  0  0  0  0  0
    2.1262    1.7381    0.0000 C   0  0  0  0  0  0  0  0  0  0  0  0
    1.4142    1.3257    0.0000 C   0  0  0  0  0  0  0  0  0  0  0  0
    3.5596    1.7357    0.0000 C   0  0  0  0  0  0  0  0  0  0  0  0
    4.2270    1.2509    0.0000 C   0  0  0  0  0  0  0  0  0  0  0  0
    4.2255    0.4290    0.0000 S   0  0  0  0  0  0  0  0  0  0  0  0
    5.0102    0.1743    0.0000 C   0  0  0  0  0  0  0  0  0  0  0  0
    5.4950    0.8419    0.0000 N   0  0  0  0  0  0  0  0  0  0  0  0
    5.0098    1.5091    0.0000 C   0  0  0  0  0  0  0  0  0  0  0  0
    5.2654   -0.6103    0.0000 O   0  0  0  0  0  0  0  0  0  0  0  0
    5.2628    2.2944    0.0000 O   0  0  0  0  0  0  0  0  0  0  0  0
   -0.0167   -0.3125    0.0000 C   0  0  0  0  0  0  0  0  0  0  0  0
 13 15  1  0
  2  7  1  0
 15 16  1  0
  1  2  2  0
 16 17  1  0
  3  8  1  0
 17 18  2  0
  9 10  1  0
 18 19  1  0
  9  4  2  0
 19 20  2  0
  4  1  1  0
 20 21  1  0
 21 22  2  0
 22 17  1  0
  4  5  1  0
 20 23  1  0
  2  3  1  0
 23 24  1  0
 24 25  1  0
  1  6  1  0
  9 14  1  0
 10 11  1  0
 11 12  1  0
 25 26  1  0
 26 27  1  0
 27 28  1  0
 28 24  1  0
 12 13  1  0
 26 29  2  0
 13 14  1  0
 28 30  2  0
  3 10  2  0
 13 31  1  0
M  END