
     RDKit          2D

 21 22  0  0  1  0  0  0  0  0999 V2000
    6.0917   -5.2375    0.0000 C   0  0  0  0  0  0  0  0  0  0  0  0
    5.6042   -5.5875    0.0000 N   0  0  0  0  0  0  0  0  0  0  0  0
    6.5792   -5.5875    0.0000 O   0  0  0  0  0  0  0  0  0  0  0  0
    5.0417   -5.4042    0.0000 C   0  0  0  0  0  0  0  0  0  0  0  0
    6.3917   -6.1625    0.0000 C   0  0  0  0  0  0  0  0  0  0  0  0
    5.7917   -6.1625    0.0000 C   0  0  0  0  0  0  0  0  0  0  0  0
    6.0917   -4.6375    0.0000 O   0  0  0  0  0  0  0  0  0  0  0  0
    6.8542   -7.6792    0.0000 C   0  0  0  0  0  0  0  0  0  0  0  0
    3.9000   -5.0292    0.0000 C   0  0  0  0  0  0  0  0  0  0  0  0
    3.3292   -4.8500    0.0000 C   0  0  0  0  0  0  0  0  0  0  0  0
    6.5042   -7.1917    0.0000 N   0  0  0  0  0  0  0  0  0  0  0  0
    6.6125   -8.2292    0.0000 O   0  0  0  0  0  0  0  0  0  0  0  0
    4.9167   -4.8167    0.0000 C   0  0  0  0  0  0  0  0  0  0  0  0
    4.5917   -5.8042    0.0000 C   0  0  0  0  0  0  0  0  0  0  0  0
    3.2042   -4.2542    0.0000 O   0  0  0  0  0  0  0  0  0  0  0  0
    4.3417   -4.6292    0.0000 C   0  0  0  0  0  0  0  0  0  0  0  0
    4.0250   -5.6167    0.0000 C   0  0  0  0  0  0  0  0  0  0  0  0
    6.7417   -6.6417    0.0000 C   0  0  0  0  0  0  0  0  0  0  0  0
    7.4500   -7.6167    0.0000 C   0  0  0  0  0  0  0  0  0  0  0  0
    2.8792   -5.2500    0.0000 C   0  0  0  0  0  0  0  0  0  0  0  0
    6.9917   -6.1625    0.0000 H   0  0  0  0  0  0  0  0  0  0  0  0
  2  1  1  0
  3  1  1  0
  4  2  1  0
  5  3  1  0
  6  2  1  0
  7  1  2  0
  8 11  1  0
  9 17  1  0
 10  9  1  0
 11 18  1  0
 12  8  2  0
 13  4  2  0
 14  4  1  0
 15 10  2  0
 16 13  1  0
 17 14  2  0
  5 18  1  1
 19  8  1  0
 20 10  1  0
  5 21  1  6
  6  5  1  0
 16  9  2  0
M  END