
     RDKit          2D

 19 19  0  0  1  0  0  0  0  0999 V2000
    2.5973   -1.5031    0.0000 O   0  0  0  0  0  0  0  0  0  0  0  0
    4.9336   -3.1588    0.0000 O   0  0  0  0  0  0  0  0  0  0  0  0
   -5.2003    1.4932    0.0000 O   0  0  0  0  0  0  0  0  0  0  0  0
    5.1894   -6.0109    0.0000 N   0  0  0  0  0  0  0  0  0  0  0  0
    1.2990   -0.7500    0.0000 C   0  0  0  0  0  0  0  0  0  0  0  0
   -1.2990    0.7500    0.0000 C   0  0  0  0  0  0  0  0  0  0  0  0
    1.2990    0.7500    0.0000 C   0  0  0  0  0  0  0  0  0  0  0  0
    0.0000   -1.5000    0.0000 C   0  0  0  0  0  0  0  0  0  0  0  0
    0.0000    1.5000    0.0000 C   0  0  0  0  0  0  0  0  0  0  0  0
   -1.2990   -0.7500    0.0000 C   0  0  0  0  0  0  0  0  0  0  0  0
   -2.6003    1.4977    0.0000 C   0  0  0  0  0  0  0  0  0  0  0  0
    2.5951   -3.0039    0.0000 C   0  0  0  0  0  0  0  0  0  0  0  0
    3.8933   -3.7570    0.0000 C   0  0  0  0  0  0  0  0  0  0  0  0
   -3.8990    0.7455    0.0000 C   0  0  0  0  0  0  0  0  0  0  0  0
    3.8912   -5.2578    0.0000 C   0  0  0  0  0  0  0  0  0  0  0  0
    5.1873   -7.5117    0.0000 C   0  0  0  0  0  0  0  0  0  0  0  0
   -6.2387    0.8917    0.0000 C   0  0  0  0  0  0  0  0  0  0  0  0
    6.2253   -8.1139    0.0000 C   0  0  0  0  0  0  0  0  0  0  0  0
    4.1470   -8.1099    0.0000 C   0  0  0  0  0  0  0  0  0  0  0  0
  1  5  1  0
  1 12  1  0
  2 13  1  0
  3 14  1  0
  3 17  1  0
  4 15  1  0
  4 16  1  0
  5  7  2  0
  5  8  1  0
  6  9  2  0
  6 10  1  0
  6 11  1  0
  7  9  1  0
  8 10  2  0
 11 14  1  0
 12 13  1  0
 13 15  1  0
 16 18  1  0
 16 19  1  0
M  END