
     RDKit          2D

 24 26  0  0  0  0  0  0  0  0999 V2000
    9.4167   -2.8542    0.0000 S   0  0  0  0  0  0  0  0  0  0  0  0
    5.7167   -2.2750    0.0000 N   0  0  0  0  0  0  0  0  0  0  0  0
    8.9917   -2.1500    0.0000 C   0  0  0  0  0  0  0  0  0  0  0  0
    6.5417   -2.2292    0.0000 N   0  0  0  0  0  0  0  0  0  0  0  0
    6.9167   -1.5000    0.0000 C   0  0  0  0  0  0  0  0  0  0  0  0
    5.2000   -1.6292    0.0000 C   0  0  0  0  0  0  0  0  0  0  0  0
    8.1667   -2.1667    0.0000 C   0  0  0  0  0  0  0  0  0  0  0  0
    4.4292   -1.9292    0.0000 C   0  0  0  0  0  0  0  0  0  0  0  0
    5.2667   -2.9667    0.0000 C   0  0  0  0  0  0  0  0  0  0  0  0
    4.4750   -2.7542    0.0000 C   0  0  0  0  0  0  0  0  0  0  0  0
    7.7375   -1.4542    0.0000 C   0  0  0  0  0  0  0  0  0  0  0  0
    9.3917   -1.4167    0.0000 C   0  0  0  0  0  0  0  0  0  0  0  0
   10.2417   -2.8292    0.0000 O   0  0  0  0  0  0  0  0  0  0  0  0
    9.0250   -3.5750    0.0000 O   0  0  0  0  0  0  0  0  0  0  0  0
    9.8292   -3.5667    0.0000 N   0  0  0  0  0  0  0  0  0  0  0  0
    6.4667   -0.8042    0.0000 O   0  0  0  0  0  0  0  0  0  0  0  0
    8.1375   -0.7292    0.0000 C   0  0  0  0  0  0  0  0  0  0  0  0
    8.9625   -0.7167    0.0000 C   0  0  0  0  0  0  0  0  0  0  0  0
   10.2167   -1.4000    0.0000 Cl  0  0  0  0  0  0  0  0  0  0  0  0
    3.7375   -1.4917    0.0000 C   0  0  0  0  0  0  0  0  0  0  0  0
    4.9792   -0.8292    0.0000 C   0  0  0  0  0  0  0  0  0  0  0  0
    3.6667   -3.1417    0.0000 C   0  0  0  0  0  0  0  0  0  0  0  0
    3.0042   -1.8667    0.0000 C   0  0  0  0  0  0  0  0  0  0  0  0
    2.9667   -2.6917    0.0000 C   0  0  0  0  0  0  0  0  0  0  0  0
  2  4  1  0
  3  1  1  0
  4  5  1  0
  5 11  1  0
  6  2  1  0
  7  3  2  0
  8  6  1  0
  9  2  1  0
 10  9  1  0
 11  7  1  0
 12  3  1  0
 13  1  2  0
 14  1  2  0
 15  1  1  0
 16  5  2  0
 17 18  1  0
 18 12  2  0
 19 12  1  0
 20  8  1  0
 21  6  1  0
 22 10  1  0
 23 20  2  0
 24 22  2  0
 11 17  2  0
 10  8  2  0
 24 23  1  0
M  END