
     RDKit          2D

 25 27  0  0  0  0  0  0  0  0999 V2000
    2.5956   -2.7031    0.0000 C   0  0  0  0  0  0  0  0  0  0  0  0
    2.5973   -1.5031    0.0000 O   0  0  0  0  0  0  0  0  0  0  0  0
    1.2990   -0.7500    0.0000 C   0  0  0  0  0  0  0  0  0  0  0  0
    1.2990    0.7500    0.0000 C   0  0  0  0  0  0  0  0  0  0  0  0
    0.0000    1.5000    0.0000 C   0  0  0  0  0  0  0  0  0  0  0  0
   -1.2990    0.7500    0.0000 C   0  0  0  0  0  0  0  0  0  0  0  0
   -1.2990   -0.7500    0.0000 C   0  0  0  0  0  0  0  0  0  0  0  0
    0.0000   -1.5000    0.0000 C   0  0  0  0  0  0  0  0  0  0  0  0
   -2.7248   -1.2135    0.0000 C   0  0  0  0  0  0  0  0  0  0  0  0
   -3.1904   -2.6376    0.0000 C   0  0  0  0  0  0  0  0  0  0  0  0
   -4.6588   -2.9478    0.0000 C   0  0  0  0  0  0  0  0  0  0  0  0
   -5.0318   -4.0884    0.0000 O   0  0  0  0  0  0  0  0  0  0  0  0
   -5.4604   -2.0548    0.0000 O   0  0  0  0  0  0  0  0  0  0  0  0
   -3.6065    0.0000    0.0000 C   0  0  0  0  0  0  0  0  0  0  0  0
   -4.8065    0.0000    0.0000 C   0  0  0  0  0  0  0  0  0  0  0  0
   -2.7248    1.2135    0.0000 N   0  0  0  0  0  0  0  0  0  0  0  0
   -3.1905    2.6376    0.0000 C   0  0  0  0  0  0  0  0  0  0  0  0
   -2.3889    3.5306    0.0000 O   0  0  0  0  0  0  0  0  0  0  0  0
   -4.6589    2.9478    0.0000 C   0  0  0  0  0  0  0  0  0  0  0  0
   -5.1272    4.3728    0.0000 C   0  0  0  0  0  0  0  0  0  0  0  0
   -6.5954    4.6799    0.0000 C   0  0  0  0  0  0  0  0  0  0  0  0
   -7.5954    3.5619    0.0000 C   0  0  0  0  0  0  0  0  0  0  0  0
   -8.7700    3.8075    0.0000 Cl  0  0  0  0  0  0  0  0  0  0  0  0
   -7.1272    2.1368    0.0000 C   0  0  0  0  0  0  0  0  0  0  0  0
   -5.6590    1.8298    0.0000 C   0  0  0  0  0  0  0  0  0  0  0  0
  1  2  1  0
  2  3  1  0
  3  4  2  0
  4  5  1  0
  5  6  2  0
  6  7  1  0
  7  8  2  0
  8  3  1  0
  7  9  1  0
  9 10  1  0
 10 11  1  0
 11 12  2  0
 11 13  1  0
  9 14  2  0
 14 15  1  0
 14 16  1  0
 16  6  1  0
 16 17  1  0
 17 18  2  0
 17 19  1  0
 19 20  2  0
 20 21  1  0
 21 22  2  0
 22 23  1  0
 22 24  1  0
 24 25  2  0
 25 19  1  0
M  END