
     RDKit          2D

 29 32  0  0  0  0  0  0  0  0999 V2000
   -1.7985   -1.2091    0.0000 C   0  0  0  0  0  0  0  0  0  0  0  0
   -1.0840    0.0284    0.0000 N   0  0  0  0  0  0  0  0  0  0  0  0
   -0.3696   -1.2091    0.0000 C   0  0  0  0  0  0  0  0  0  0  0  0
   -0.3696   -0.3841    0.0000 C   0  0  0  0  0  0  0  0  0  0  0  0
   -1.0840   -1.6216    0.0000 C   0  0  0  0  0  0  0  0  0  0  0  0
   -1.7985   -0.3841    0.0000 C   0  0  0  0  0  0  0  0  0  0  0  0
    0.3449    0.0284    0.0000 C   0  0  0  0  0  0  0  0  0  0  0  0
    1.0594   -0.3841    0.0000 C   0  0  0  0  0  0  0  0  0  0  0  0
    0.3449   -1.6216    0.0000 C   0  0  0  0  0  0  0  0  0  0  0  0
    1.7739    0.0284    0.0000 N   0  0  0  0  0  0  0  0  0  0  0  0
   -2.5130   -1.6216    0.0000 C   0  0  0  0  0  0  0  0  0  0  0  0
    1.0594   -1.2091    0.0000 C   0  0  0  0  0  0  0  0  0  0  0  0
   -1.0840    0.8534    0.0000 C   0  0  0  0  0  0  0  0  0  0  0  0
    3.2028    0.8534    0.0000 N   0  0  0  0  0  0  0  0  0  0  0  0
   -1.0840   -2.4466    0.0000 O   0  0  0  0  0  0  0  0  0  0  0  0
    1.7739    0.8534    0.0000 C   0  0  0  0  0  0  0  0  0  0  0  0
    2.4883   -0.3841    0.0000 C   0  0  0  0  0  0  0  0  0  0  0  0
   -3.2274   -1.2091    0.0000 O   0  0  0  0  0  0  0  0  0  0  0  0
   -1.7985    1.2659    0.0000 C   0  0  0  0  0  0  0  0  0  0  0  0
   -0.3696    1.2659    0.0000 C   0  0  0  0  0  0  0  0  0  0  0  0
    3.2028    0.0284    0.0000 C   0  0  0  0  0  0  0  0  0  0  0  0
    2.4883    1.2659    0.0000 C   0  0  0  0  0  0  0  0  0  0  0  0
    1.7739   -1.6216    0.0000 F   0  0  0  0  0  0  0  0  0  0  0  0
   -2.5130   -2.4466    0.0000 O   0  0  0  0  0  0  0  0  0  0  0  0
   -1.0840    2.5034    0.0000 C   0  0  0  0  0  0  0  0  0  0  0  0
   -0.3696    2.0909    0.0000 C   0  0  0  0  0  0  0  0  0  0  0  0
   -1.7985    2.0909    0.0000 C   0  0  0  0  0  0  0  0  0  0  0  0
   -1.0840    3.3284    0.0000 F   0  0  0  0  0  0  0  0  0  0  0  0
    3.9173    1.2659    0.0000 C   0  0  0  0  0  0  0  0  0  0  0  0
  2  4  1  0
  3  4  2  0
  1  5  1  0
  3  5  1  0
  1  6  2  0
  2  6  1  0
  4  7  1  0
  7  8  2  0
  3  9  1  0
  8 10  1  0
  1 11  1  0
  8 12  1  0
  9 12  2  0
  2 13  1  0
  5 15  2  0
 10 16  1  0
 10 17  1  0
 11 18  2  0
 13 19  1  0
 13 20  2  0
 14 21  1  0
 17 21  1  0
 14 22  1  0
 16 22  1  0
 12 23  1  0
 11 24  1  0
 20 26  1  0
 25 26  2  0
 19 27  2  0
 25 27  1  0
 25 28  1  0
 14 29  1  0
M  END