
     RDKit          2D

 20 22  0  0  1  0  0  0  0  0999 V2000
    1.9413   -0.8879    0.0000 C   0  0  0  0  0  0  0  0  0  0  0  0
    0.7500   -1.0323    0.0000 C   0  0  0  0  0  0  0  0  0  0  0  0
    0.1233   -2.3813    0.0000 C   0  0  0  0  0  0  0  0  0  0  0  0
   -1.3692   -2.5388    0.0000 N   0  0  0  0  0  0  0  0  0  0  0  0
   -2.1139   -3.8253    0.0000 C   0  0  0  0  0  0  0  0  0  0  0  0
   -3.5769   -3.4942    0.0000 C   0  0  0  0  0  0  0  0  0  0  0  0
   -3.7141   -2.0005    0.0000 N   0  0  0  0  0  0  0  0  0  0  0  0
   -2.3359   -1.4084    0.0000 N   0  0  0  0  0  0  0  0  0  0  0  0
    1.2135    0.3943    0.0000 C   0  0  0  0  0  0  0  0  0  0  0  0
    0.0000    1.2760    0.0000 N   0  0  0  0  0  0  0  0  0  0  0  0
   -1.2135    0.3943    0.0000 C   0  0  0  0  0  0  0  0  0  0  0  0
   -2.0931    1.6049    0.0000 C   0  0  0  0  0  0  0  0  0  0  0  0
   -0.8796    2.4866    0.0000 C   0  0  0  0  0  0  0  0  0  0  0  0
   -0.6918    3.6718    0.0000 O   0  0  0  0  0  0  0  0  0  0  0  0
   -0.7500   -1.0323    0.0000 S   0  0  0  0  0  0  0  0  0  0  0  0
   -0.2455   -2.1211    0.0000 O   0  0  0  0  0  0  0  0  0  0  0  0
   -1.9414   -0.8892    0.0000 O   0  0  0  0  0  0  0  0  0  0  0  0
    2.6394    0.8543    0.0000 C   0  0  0  0  0  0  0  0  0  0  0  0
    3.5300    0.0501    0.0000 O   0  0  0  0  0  0  0  0  0  0  0  0
    2.8910    2.0277    0.0000 O   0  0  0  0  0  0  0  0  0  0  0  0
  2  1  1  1
  2  3  1  0
  3  4  1  0
  4  5  1  0
  5  6  2  0
  6  7  1  0
  7  8  2  0
  8  4  1  0
  2  9  1  0
  9 10  1  0
 10 11  1  0
 11 12  1  6
 12 13  1  0
 13 10  1  0
 13 14  2  0
 11 15  1  0
 15  2  1  0
 15 16  2  0
 15 17  2  0
  9 18  1  1
 18 19  2  0
 18 20  1  0
M  END