
     RDKit          2D

 33 37  0  0  0  0  0  0  0  0999 V2000
   -3.8951    1.0392    0.0000 S   0  0  0  0  0  0  0  0  0  0  0  0
   -0.1505   -2.5971    0.0000 O   0  0  0  0  0  0  0  0  0  0  0  0
    2.6115   -1.6997    0.0000 O   0  0  0  0  0  0  0  0  0  0  0  0
   -1.4201   -0.3898    0.0000 N   0  0  0  0  0  0  0  0  0  0  0  0
    1.3015   -2.3671    0.0000 N   0  0  0  0  0  0  0  0  0  0  0  0
    1.5565    1.0872    0.0000 N   0  0  0  0  0  0  0  0  0  0  0  0
   -5.1326    1.7536    0.0000 N   0  0  0  0  0  0  0  0  0  0  0  0
   -5.1326    0.3247    0.0000 N   0  0  0  0  0  0  0  0  0  0  0  0
    0.5169   -1.2872    0.0000 C   0  0  0  0  0  0  0  0  0  0  0  0
    1.3015   -1.0323    0.0000 C   0  0  0  0  0  0  0  0  0  0  0  0
   -0.1505   -0.8023    0.0000 C   0  0  0  0  0  0  0  0  0  0  0  0
    1.5565   -0.2476    0.0000 C   0  0  0  0  0  0  0  0  0  0  0  0
   -0.1505    0.0227    0.0000 C   0  0  0  0  0  0  0  0  0  0  0  0
    0.5169   -2.1122    0.0000 C   0  0  0  0  0  0  0  0  0  0  0  0
    1.7865   -1.6997    0.0000 C   0  0  0  0  0  0  0  0  0  0  0  0
    2.3411    0.0073    0.0000 C   0  0  0  0  0  0  0  0  0  0  0  0
   -0.9352    0.2777    0.0000 C   0  0  0  0  0  0  0  0  0  0  0  0
    2.3411    0.8323    0.0000 C   0  0  0  0  0  0  0  0  0  0  0  0
   -0.9352   -1.0572    0.0000 C   0  0  0  0  0  0  0  0  0  0  0  0
    1.0715    0.4198    0.0000 C   0  0  0  0  0  0  0  0  0  0  0  0
    0.4626    0.5748    0.0000 C   0  0  0  0  0  0  0  0  0  0  0  0
    3.0556   -0.4052    0.0000 C   0  0  0  0  0  0  0  0  0  0  0  0
   -1.1067    1.0846    0.0000 C   0  0  0  0  0  0  0  0  0  0  0  0
    3.0556    1.2448    0.0000 C   0  0  0  0  0  0  0  0  0  0  0  0
   -2.2451   -0.3898    0.0000 C   0  0  0  0  0  0  0  0  0  0  0  0
    0.2910    1.3817    0.0000 C   0  0  0  0  0  0  0  0  0  0  0  0
   -0.4936    1.6367    0.0000 C   0  0  0  0  0  0  0  0  0  0  0  0
    3.7700    0.0073    0.0000 C   0  0  0  0  0  0  0  0  0  0  0  0
    3.7700    0.8323    0.0000 C   0  0  0  0  0  0  0  0  0  0  0  0
    1.3015    1.8719    0.0000 C   0  0  0  0  0  0  0  0  0  0  0  0
   -2.6576    0.3247    0.0000 C   0  0  0  0  0  0  0  0  0  0  0  0
   -3.4826    0.3247    0.0000 C   0  0  0  0  0  0  0  0  0  0  0  0
   -4.7201    1.0392    0.0000 C   0  0  0  0  0  0  0  0  0  0  0  0
  1 32  1  0
  1 33  1  0
  2 14  2  0
  3 15  2  0
  4 17  1  0
  4 19  1  0
  4 25  1  0
  5 14  1  0
  5 15  1  0
  6 18  1  0
  6 20  1  0
  6 30  1  0
  7 33  2  0
 33  8  1  0
  9 10  2  0
  9 11  1  0
  9 14  1  0
 10 12  1  0
 10 15  1  0
 11 13  1  0
 11 19  2  0
 12 16  1  0
 12 20  2  0
 13 17  2  0
 13 21  1  0
 16 18  2  0
 16 22  1  0
 17 23  1  0
 18 24  1  0
 21 26  2  0
 22 28  2  0
 23 27  2  0
 24 29  2  0
 25 31  1  0
 26 27  1  0
 28 29  1  0
 31 32  1  0
M  END