
     RDKit          2D

 47 53  0  0  0  0  0  0  0  0999 V2000
   -4.7375   -2.2292    0.0000 N   0  0  0  0  0  0  0  0  0  0  0  0
    3.2042   -2.2625    0.0000 N   0  0  0  0  0  0  0  0  0  0  0  0
   -5.4583   -1.8167    0.0000 C   0  0  0  0  0  0  0  0  0  0  0  0
    3.9250   -1.8417    0.0000 C   0  0  0  0  0  0  0  0  0  0  0  0
    3.9250   -1.0167    0.0000 C   0  0  0  0  0  0  0  0  0  0  0  0
   -5.4583   -0.9917    0.0000 C   0  0  0  0  0  0  0  0  0  0  0  0
   -4.7375   -0.5792    0.0000 C   0  0  0  0  0  0  0  0  0  0  0  0
    3.2042   -0.6042    0.0000 C   0  0  0  0  0  0  0  0  0  0  0  0
   -4.0208   -1.8167    0.0000 C   0  0  0  0  0  0  0  0  0  0  0  0
    2.4917   -1.8500    0.0000 C   0  0  0  0  0  0  0  0  0  0  0  0
   -4.7375   -3.0542    0.0000 C   0  0  0  0  0  0  0  0  0  0  0  0
    3.2125   -3.0875    0.0000 C   0  0  0  0  0  0  0  0  0  0  0  0
   -4.0208   -0.9917    0.0000 C   0  0  0  0  0  0  0  0  0  0  0  0
    2.4917   -1.0250    0.0000 C   0  0  0  0  0  0  0  0  0  0  0  0
   -4.7458    0.2458    0.0000 N   0  0  0  0  0  0  0  0  0  0  0  0
    3.2292    0.2708    0.0000 N   0  0  0  0  0  0  0  0  0  0  0  0
   -2.7833   -4.2250    0.0000 C   0  0  0  0  0  0  0  0  0  0  0  0
    1.5042   -4.2250    0.0000 C   0  0  0  0  0  0  0  0  0  0  0  0
    0.0792   -5.0500    0.0000 C   0  0  0  0  0  0  0  0  0  0  0  0
   -1.3500   -5.0542    0.0000 C   0  0  0  0  0  0  0  0  0  0  0  0
   -0.6333   -5.4667    0.0000 C   0  0  0  0  0  0  0  0  0  0  0  0
   -2.0708   -3.8125    0.0000 C   0  0  0  0  0  0  0  0  0  0  0  0
    1.5042   -5.0500    0.0000 C   0  0  0  0  0  0  0  0  0  0  0  0
   -2.7833   -5.0542    0.0000 C   0  0  0  0  0  0  0  0  0  0  0  0
    0.7792   -3.8125    0.0000 C   0  0  0  0  0  0  0  0  0  0  0  0
   -1.3500   -4.2250    0.0000 C   0  0  0  0  0  0  0  0  0  0  0  0
   -2.0708   -5.4667    0.0000 C   0  0  0  0  0  0  0  0  0  0  0  0
    0.7917   -5.4625    0.0000 C   0  0  0  0  0  0  0  0  0  0  0  0
    0.0750   -4.2292    0.0000 C   0  0  0  0  0  0  0  0  0  0  0  0
    4.6292   -0.6042    0.0000 C   0  0  0  0  0  0  0  0  0  0  0  0
   -6.1667   -0.5875    0.0000 C   0  0  0  0  0  0  0  0  0  0  0  0
   -6.1542   -2.2375    0.0000 C   0  0  0  0  0  0  0  0  0  0  0  0
    4.6417   -2.2542    0.0000 C   0  0  0  0  0  0  0  0  0  0  0  0
    2.4042    0.2708    0.0000 C   0  0  0  0  0  0  0  0  0  0  0  0
   -4.0333    0.6583    0.0000 C   0  0  0  0  0  0  0  0  0  0  0  0
   -6.8792   -1.0000    0.0000 C   0  0  0  0  0  0  0  0  0  0  0  0
    5.3500   -1.0125    0.0000 C   0  0  0  0  0  0  0  0  0  0  0  0
    5.3542   -1.8417    0.0000 C   0  0  0  0  0  0  0  0  0  0  0  0
   -6.8750   -1.8292    0.0000 C   0  0  0  0  0  0  0  0  0  0  0  0
   -3.3125    0.2500    0.0000 C   0  0  0  0  0  0  0  0  0  0  0  0
    1.6875    0.6750    0.0000 C   0  0  0  0  0  0  0  0  0  0  0  0
   -0.4583    0.2583    0.0000 C   0  0  0  0  0  0  0  0  0  0  0  0
    0.2542    0.6708    0.0000 C   0  0  0  0  0  0  0  0  0  0  0  0
    0.9750    0.2625    0.0000 C   0  0  0  0  0  0  0  0  0  0  0  0
   -2.5958    0.6625    0.0000 C   0  0  0  0  0  0  0  0  0  0  0  0
   -1.8833    0.2583    0.0000 C   0  0  0  0  0  0  0  0  0  0  0  0
   -1.1708    0.6708    0.0000 C   0  0  0  0  0  0  0  0  0  0  0  0
  2 12  1  0
  3  1  1  0
  4  2  2  0
  5  4  1  0
  6  3  1  0
  7 13  2  0
  8 14  1  0
  9  1  2  0
 10  2  1  0
 11  1  1  0
 12 18  1  0
 13  9  1  0
 14 10  2  0
 15  7  1  0
 16 34  1  0
 17 11  1  0
 18 25  1  0
 19 21  1  0
 20 27  2  0
 21 20  1  0
 22 17  1  0
 23 28  1  0
 24 17  2  0
 25 29  2  0
 26 22  2  0
 27 24  1  0
 28 19  2  0
 29 19  1  0
 30  5  1  0
 31  6  2  0
 32  3  2  0
 33  4  1  0
 34 41  1  0
 35 15  1  0
 36 39  2  0
 37 38  1  0
 38 33  2  0
 39 32  1  0
 40 35  1  0
 41 44  1  0
 42 47  1  0
 43 42  1  0
 44 43  1  0
 45 40  1  0
 46 45  1  0
 47 46  1  0
  6  7  1  0
 20 26  1  0
 36 31  1  0
 18 23  2  0
  8  5  2  0
 16  8  1  0
 30 37  2  0
M  CHG  2   1   1   2   1
M  END