
     RDKit          2D

 21 21  0  0  0  0  0  0  0  0999 V2000
    9.8250   -6.3625    0.0000 Na  0  0  0  0  0 15  0  0  0  0  0  0
    6.9792   -4.7500    0.0000 C   0  0  0  0  0  0  0  0  0  0  0  0
    8.5167   -4.4917    0.0000 C   0  0  0  0  0  0  0  0  0  0  0  0
    7.8500   -5.1875    0.0000 N   0  0  0  0  0  0  0  0  0  0  0  0
    7.1250   -3.7917    0.0000 C   0  0  0  0  0  0  0  0  0  0  0  0
    8.0625   -3.6292    0.0000 C   0  0  0  0  0  0  0  0  0  0  0  0
    6.1250   -5.1917    0.0000 C   0  0  0  0  0  0  0  0  0  0  0  0
    9.4500   -4.7417    0.0000 C   0  0  0  0  0  0  0  0  0  0  0  0
   10.2667   -4.2542    0.0000 C   0  0  0  0  0  0  0  0  0  0  0  0
    5.3625   -4.7542    0.0000 C   0  0  0  0  0  0  0  0  0  0  0  0
    6.1167   -6.0792    0.0000 O   0  0  0  0  0  0  0  0  0  0  0  0
   11.1917   -4.5042    0.0000 O   0  0  0  0  0  0  0  0  0  0  0  0
   10.2667   -3.3042    0.0000 O   0  0  0  0  0  0  0  0  0  0  0  0
    5.3625   -3.8667    0.0000 C   0  0  0  0  0  0  0  0  0  0  0  0
    4.5917   -5.1917    0.0000 C   0  0  0  0  0  0  0  0  0  0  0  0
    7.8417   -6.1500    0.0000 C   0  0  0  0  0  0  0  0  0  0  0  0
    3.8292   -3.8667    0.0000 C   0  0  0  0  0  0  0  0  0  0  0  0
    6.4417   -3.1167    0.0000 C   0  0  0  0  0  0  0  0  0  0  0  0
    4.5917   -3.4250    0.0000 C   0  0  0  0  0  0  0  0  0  0  0  0
    3.8292   -4.7542    0.0000 C   0  0  0  0  0  0  0  0  0  0  0  0
    3.2042   -3.2417    0.0000 Cl  0  0  0  0  0  0  0  0  0  0  0  0
  3  4  1  0
  4  2  1  0
  5  2  2  0
  6  5  1  0
  7  2  1  0
  8  3  1  0
  9  8  1  0
 10  7  1  0
 11  7  2  0
 12  9  1  0
 13  9  2  0
 14 10  1  0
 15 10  2  0
 16  4  1  0
 17 20  2  0
 18  5  1  0
 19 14  2  0
 20 15  1  0
 21 17  1  0
  3  6  2  0
 19 17  1  0
M  CHG  2   1   1  12  -1
M  END