
     RDKit          2D

 29 30  0  0  0  0  0  0  0  0999 V2000
   -5.0229   -5.0772    0.0000 C   0  0  0  0  0  0  0  0  0  0  0  0
   -5.0229   -5.9039    0.0000 C   0  0  0  0  0  0  0  0  0  0  0  0
   -4.3094   -6.3131    0.0000 C   0  0  0  0  0  0  0  0  0  0  0  0
   -3.5959   -5.9039    0.0000 C   0  0  0  0  0  0  0  0  0  0  0  0
   -3.5959   -5.0772    0.0000 C   0  0  0  0  0  0  0  0  0  0  0  0
   -4.3094   -4.6596    0.0000 C   0  0  0  0  0  0  0  0  0  0  0  0
   -2.8852   -4.6638    0.0000 C   0  0  0  0  0  0  0  0  0  0  0  0
   -2.1712   -5.0730    0.0000 C   0  0  0  0  0  0  0  0  0  0  0  0
   -1.4572   -4.6596    0.0000 C   0  0  0  0  0  0  0  0  0  0  0  0
   -0.7432   -5.0688    0.0000 C   0  0  0  0  0  0  0  0  0  0  0  0
   -0.0293   -4.6554    0.0000 C   0  0  0  0  0  0  0  0  0  0  0  0
    0.6847   -5.0647    0.0000 C   0  0  0  0  0  0  0  0  0  0  0  0
    1.3987   -4.6513    0.0000 C   0  0  0  0  0  0  0  0  0  0  0  0
    2.1127   -5.0605    0.0000 C   0  0  0  0  0  0  0  0  0  0  0  0
    2.8266   -4.6471    0.0000 C   0  0  0  0  0  0  0  0  0  0  0  0
    3.5406   -5.0563    0.0000 N   0  0  0  0  0  0  0  0  0  0  0  0
    1.3969   -3.8246    0.0000 C   0  0  0  0  0  0  0  0  0  0  0  0
   -1.4590   -3.8329    0.0000 C   0  0  0  0  0  0  0  0  0  0  0  0
   -4.7306   -3.9415    0.0000 C   0  0  0  0  0  0  0  0  0  0  0  0
   -3.9039   -3.9415    0.0000 C   0  0  0  0  0  0  0  0  0  0  0  0
    2.8248   -3.8204    0.0000 O   0  0  0  0  0  0  0  0  0  0  0  0
    4.2553   -4.6407    0.0000 C   0  0  0  0  0  0  0  0  0  0  0  0
    4.9702   -5.0543    0.0000 C   0  0  0  0  0  0  0  0  0  0  0  0
    5.6843   -4.6394    0.0000 C   0  0  0  0  0  0  0  0  0  0  0  0
    5.6821   -3.8118    0.0000 C   0  0  0  0  0  0  0  0  0  0  0  0
    4.9598   -3.4008    0.0000 C   0  0  0  0  0  0  0  0  0  0  0  0
    4.2486   -3.8182    0.0000 C   0  0  0  0  0  0  0  0  0  0  0  0
    6.3961   -3.3951    0.0000 O   0  0  0  0  0  0  0  0  0  0  0  0
   -2.8806   -6.3183    0.0000 C   0  0  0  0  0  0  0  0  0  0  0  0
  5  7  1  0
 14 15  1  0
  1  2  1  0
 15 16  1  0
  7  8  2  0
 13 17  1  0
  1  6  1  0
  9 18  1  0
  8  9  1  0
  6 19  1  0
  2  3  1  0
  6 20  1  0
  9 10  2  0
 15 21  2  0
  3  4  1  0
 16 22  1  0
 10 11  1  0
 22 23  2  0
  4  5  2  0
 23 24  1  0
 11 12  2  0
 24 25  2  0
  5  6  1  0
 25 26  1  0
 12 13  1  0
 26 27  2  0
 27 22  1  0
 25 28  1  0
 13 14  2  0
  4 29  1  0
M  END