
     RDKit          2D

 21 23  0  0  0  0  0  0  0  0999 V2000
    5.2448   -4.4343    0.0000 C   0  0  0  0  0  0  0  0  0  0  0  0
    5.2436   -5.2610    0.0000 C   0  0  0  0  0  0  0  0  0  0  0  0
    5.9579   -5.6736    0.0000 C   0  0  0  0  0  0  0  0  0  0  0  0
    5.9561   -4.0218    0.0000 C   0  0  0  0  0  0  0  0  0  0  0  0
    6.6702   -5.2602    0.0000 C   0  0  0  0  0  0  0  0  0  0  0  0
    6.6709   -4.4306    0.0000 C   0  0  0  0  0  0  0  0  0  0  0  0
    7.3241   -5.7799    0.0000 C   0  0  0  0  0  0  0  0  0  0  0  0
    8.1375   -5.5920    0.0000 N   0  0  0  0  0  0  0  0  0  0  0  0
    8.4954   -4.8384    0.0000 C   0  0  0  0  0  0  0  0  0  0  0  0
    7.1423   -6.5840    0.0000 O   0  0  0  0  0  0  0  0  0  0  0  0
    8.6540   -6.2344    0.0000 C   0  0  0  0  0  0  0  0  0  0  0  0
    7.3200   -3.9045    0.0000 N   0  0  0  0  0  0  0  0  0  0  0  0
    8.1351   -4.0882    0.0000 C   0  0  0  0  0  0  0  0  0  0  0  0
    8.5616   -3.3698    0.0000 C   0  0  0  0  0  0  0  0  0  0  0  0
    8.0102   -2.7421    0.0000 N   0  0  0  0  0  0  0  0  0  0  0  0
    7.2429   -3.0727    0.0000 C   0  0  0  0  0  0  0  0  0  0  0  0
    9.3825   -3.2937    0.0000 C   0  0  0  0  0  0  0  0  0  0  0  0
    9.8594   -3.9659    0.0000 O   0  0  0  0  0  0  0  0  0  0  0  0
    9.7275   -2.5441    0.0000 O   0  0  0  0  0  0  0  0  0  0  0  0
   10.6802   -3.8891    0.0000 C   0  0  0  0  0  0  0  0  0  0  0  0
   11.1572   -4.5615    0.0000 C   0  0  0  0  0  0  0  0  0  0  0  0
  4  1  1  0
  7 10  2  0
  8 11  1  0
 12 13  1  0
  2  3  1  0
  5  6  1  0
  6 12  1  0
  3  5  2  0
  5  7  1  0
 13 14  2  0
 14 15  1  0
 15 16  2  0
 16 12  1  0
  1  2  2  0
 14 17  1  0
  7  8  1  0
  6  4  2  0
 17 18  1  0
 17 19  2  0
 13  9  1  0
 18 20  1  0
  8  9  1  0
 20 21  1  0
M  END