
     RDKit          2D

 11  9  0  0  0  0  0  0  0  0999 V2000
   -4.6569  -14.1156    0.0000 Cl  0  0  0  0  0  0  0  0  0  0  0  0
   -2.9038  -13.9854    0.0000 N   0  0  0  0  0  0  0  0  0  0  0  0
   -3.6183  -14.3979    0.0000 C   0  0  0  0  0  0  0  0  0  0  0  0
   -3.3163  -13.2709    0.0000 C   0  0  0  0  0  0  0  0  0  0  0  0
   -2.4913  -14.6999    0.0000 C   0  0  0  0  0  0  0  0  0  0  0  0
   -2.1893  -13.5729    0.0000 C   0  0  0  0  0  0  0  0  0  0  0  0
   -1.4748  -13.9854    0.0000 C   0  0  0  0  0  0  0  0  0  0  0  0
   -0.7604  -13.5729    0.0000 O   0  0  0  0  0  0  0  0  0  0  0  0
   -0.0459  -13.9854    0.0000 C   0  0  0  0  0  0  0  0  0  0  0  0
    0.6686  -13.5729    0.0000 N   0  0  0  0  0  0  0  0  0  0  0  0
   -0.0459  -14.8104    0.0000 O   0  0  0  0  0  0  0  0  0  0  0  0
  2  5  1  0
  6  7  1  0
  7  8  1  0
  2  6  1  0
  8  9  1  0
  9 10  1  0
  2  3  1  0
  9 11  2  0
  2  4  1  0
M  CHG  2   1  -1   2   1
M  END