
     RDKit          2D

 12 12  0  0  0  0  0  0  0  0999 V2000
    3.0500   -0.8125    0.0000 C   0  0  0  0  0  0  0  0  0  0  0  0
    4.4792   -0.8042    0.0000 N   0  0  0  0  0  0  0  0  0  0  0  0
    3.7625   -0.3917    0.0000 N   0  0  0  0  0  0  0  0  0  0  0  0
    3.0500   -1.6417    0.0000 C   0  0  0  0  0  0  0  0  0  0  0  0
    2.3292   -0.4000    0.0000 C   0  0  0  0  0  0  0  0  0  0  0  0
    5.1917   -1.2167    0.0000 O   0  0  0  0  0  0  0  0  0  0  0  0
    1.6167   -0.8125    0.0000 C   0  0  0  0  0  0  0  0  0  0  0  0
    2.3292   -2.0542    0.0000 C   0  0  0  0  0  0  0  0  0  0  0  0
    1.6167   -1.6417    0.0000 C   0  0  0  0  0  0  0  0  0  0  0  0
    2.3292    0.4250    0.0000 O   0  0  0  0  0  0  0  0  0  0  0  0
    2.3292   -2.8792    0.0000 O   0  0  0  0  0  0  0  0  0  0  0  0
    3.7542    0.4333    0.0000 C   0  0  0  0  0  0  0  0  0  0  0  0
  2  3  1  0
  3  1  1  0
  4  1  1  0
  5  1  2  0
  6  2  2  0
  7  5  1  0
  8  4  2  0
  9  7  2  0
 10  5  1  0
 11  8  1  0
 12  3  1  0
  8  9  1  0
M  END