
     RDKit          2D

 22 24  0  0  0  0  0  0  0  0999 V2000
    4.1875  -11.4250    0.0000 N   0  0  0  0  0  0  0  0  0  0  0  0
    3.5042  -10.8917    0.0000 C   0  0  0  0  0  0  0  0  0  0  0  0
    4.9875  -11.2250    0.0000 C   0  0  0  0  0  0  0  0  0  0  0  0
    2.8250  -11.2792    0.0000 C   0  0  0  0  0  0  0  0  0  0  0  0
    3.5000  -10.0917    0.0000 C   0  0  0  0  0  0  0  0  0  0  0  0
    4.9542  -14.2917    0.0000 N   0  0  0  0  0  0  0  0  0  0  0  0
    5.3292  -10.4667    0.0000 C   0  0  0  0  0  0  0  0  0  0  0  0
    4.1292   -9.5792    0.0000 C   0  0  0  0  0  0  0  0  0  0  0  0
    4.9292   -9.7167    0.0000 C   0  0  0  0  0  0  0  0  0  0  0  0
    3.9667  -12.2500    0.0000 C   0  0  0  0  0  0  0  0  0  0  0  0
    2.8250   -9.7042    0.0000 C   0  0  0  0  0  0  0  0  0  0  0  0
    2.1417  -10.8875    0.0000 C   0  0  0  0  0  0  0  0  0  0  0  0
    4.5667  -12.8542    0.0000 C   0  0  0  0  0  0  0  0  0  0  0  0
    2.1417  -10.1042    0.0000 C   0  0  0  0  0  0  0  0  0  0  0  0
    1.4625  -11.2750    0.0000 Cl  0  0  0  0  0  0  0  0  0  0  0  0
    4.3417  -13.6875    0.0000 C   0  0  0  0  0  0  0  0  0  0  0  0
    5.4750  -11.9042    0.0000 C   0  0  0  0  0  0  0  0  0  0  0  0
    4.3417  -14.9000    0.0000 C   0  0  0  0  0  0  0  0  0  0  0  0
    5.7000  -14.7250    0.0000 C   0  0  0  0  0  0  0  0  0  0  0  0
    6.1625  -10.3792    0.0000 C   0  0  0  0  0  0  0  0  0  0  0  0
    6.3042  -11.8167    0.0000 C   0  0  0  0  0  0  0  0  0  0  0  0
    6.6500  -11.0542    0.0000 C   0  0  0  0  0  0  0  0  0  0  0  0
  2  1  1  0
  3  1  1  0
  4  2  2  0
  5  2  1  0
  6 16  1  0
  7  3  2  0
  8  5  1  0
  9  7  1  0
 10  1  1  0
 11  5  2  0
 12  4  1  0
 13 10  1  0
 14 11  1  0
 15 12  1  0
 16 13  1  0
 17  3  1  0
 18  6  1  0
 19  6  1  0
 20  7  1  0
 21 17  2  0
 22 21  1  0
  8  9  1  0
 20 22  2  0
 12 14  2  0
M  END