
     RDKit          2D

 19 19  0  0  0  0  0  0  0  0999 V2000
    0.4532    0.5161    0.0000 C   0  0  0  0  0  0  0  0  0  0  0  0
   -0.2613    0.9286    0.0000 C   0  0  0  0  0  0  0  0  0  0  0  0
   -0.9758    0.5161    0.0000 C   0  0  0  0  0  0  0  0  0  0  0  0
   -0.9758   -0.3089    0.0000 C   0  0  0  0  0  0  0  0  0  0  0  0
   -0.2613   -0.7214    0.0000 C   0  0  0  0  0  0  0  0  0  0  0  0
    0.4532   -0.3089    0.0000 C   0  0  0  0  0  0  0  0  0  0  0  0
   -0.2613    1.7536    0.0000 S   0  0  0  0  0  0  0  0  0  0  0  0
   -0.2613    2.5786    0.0000 N   0  0  0  0  0  0  0  0  0  0  0  0
    0.5637    1.7536    0.0000 O   0  0  0  0  0  0  0  0  0  0  0  0
   -1.0863    1.7536    0.0000 O   0  0  0  0  0  0  0  0  0  0  0  0
    1.1676   -0.7214    0.0000 S   0  0  0  0  0  0  0  0  0  0  0  0
    0.7551   -1.4359    0.0000 N   0  0  0  0  0  0  0  0  0  0  0  0
    1.5801   -0.0069    0.0000 O   0  0  0  0  0  0  0  0  0  0  0  0
    1.8821   -1.1339    0.0000 O   0  0  0  0  0  0  0  0  0  0  0  0
   -1.6902    0.9286    0.0000 N   0  0  0  0  0  0  0  0  0  0  0  0
   -0.2613   -1.5464    0.0000 C   0  0  0  0  0  0  0  0  0  0  0  0
   -0.2613   -2.3714    0.0000 F   0  0  0  0  0  0  0  0  0  0  0  0
    0.5233   -1.8013    0.0000 F   0  0  0  0  0  0  0  0  0  0  0  0
   -1.0863   -1.5464    0.0000 F   0  0  0  0  0  0  0  0  0  0  0  0
 14 11  2  0
 13 11  2  0
 12 11  1  0
  6 11  1  0
 16 17  1  0
 16 19  1  0
 16 18  1  0
  5 16  1  0
  6  5  2  0
  1  6  1  0
  5  4  1  0
  2  1  2  0
  4  3  2  0
  2  3  1  0
  2  7  1  0
  8  7  1  0
  3 15  1  0
 10  7  2  0
  9  7  2  0
M  END