
     RDKit          2D

 33 34  0  0  0  0  0  0  0  0999 V2000
    2.9538   -0.0408    0.0000 O   0  0  0  0  0  0  0  0  0  0  0  0
    2.9538    1.6092    0.0000 O   0  0  0  0  0  0  0  0  0  0  0  0
   12.9564   -0.0408    0.0000 O   0  0  0  0  0  0  0  0  0  0  0  0
   12.9564   -1.6908    0.0000 O   0  0  0  0  0  0  0  0  0  0  0  0
    6.6366    1.3881    0.0000 N   0  0  0  0  0  0  0  0  0  0  0  0
    8.6695   -0.0408    0.0000 N   0  0  0  0  0  0  0  0  0  0  0  0
    5.8116   -0.0408    0.0000 C   0  0  0  0  0  0  0  0  0  0  0  0
    5.0972    0.3717    0.0000 C   0  0  0  0  0  0  0  0  0  0  0  0
    5.3991   -0.7553    0.0000 C   0  0  0  0  0  0  0  0  0  0  0  0
    4.3827   -0.0408    0.0000 C   0  0  0  0  0  0  0  0  0  0  0  0
    6.5261   -0.4533    0.0000 C   0  0  0  0  0  0  0  0  0  0  0  0
    3.6682    0.3717    0.0000 C   0  0  0  0  0  0  0  0  0  0  0  0
    5.0972    1.1967    0.0000 C   0  0  0  0  0  0  0  0  0  0  0  0
    6.2241    0.6736    0.0000 C   0  0  0  0  0  0  0  0  0  0  0  0
    3.6682    1.1967    0.0000 C   0  0  0  0  0  0  0  0  0  0  0  0
    4.3827    1.6092    0.0000 C   0  0  0  0  0  0  0  0  0  0  0  0
    7.2406   -0.0408    0.0000 C   0  0  0  0  0  0  0  0  0  0  0  0
    5.8116   -1.4698    0.0000 C   0  0  0  0  0  0  0  0  0  0  0  0
    4.5741   -0.7553    0.0000 C   0  0  0  0  0  0  0  0  0  0  0  0
   12.2419   -0.4533    0.0000 C   0  0  0  0  0  0  0  0  0  0  0  0
   12.2419   -1.2783    0.0000 C   0  0  0  0  0  0  0  0  0  0  0  0
   10.8129   -0.4533    0.0000 C   0  0  0  0  0  0  0  0  0  0  0  0
    7.9551   -0.4533    0.0000 C   0  0  0  0  0  0  0  0  0  0  0  0
   11.5274   -0.0408    0.0000 C   0  0  0  0  0  0  0  0  0  0  0  0
   11.5274   -1.6908    0.0000 C   0  0  0  0  0  0  0  0  0  0  0  0
   10.8129   -1.2783    0.0000 C   0  0  0  0  0  0  0  0  0  0  0  0
   10.0985   -0.0408    0.0000 C   0  0  0  0  0  0  0  0  0  0  0  0
    9.3840   -0.4533    0.0000 C   0  0  0  0  0  0  0  0  0  0  0  0
    2.2393    0.3717    0.0000 C   0  0  0  0  0  0  0  0  0  0  0  0
    2.9538    2.4342    0.0000 C   0  0  0  0  0  0  0  0  0  0  0  0
    8.6695    0.7842    0.0000 C   0  0  0  0  0  0  0  0  0  0  0  0
   12.9564    0.7842    0.0000 C   0  0  0  0  0  0  0  0  0  0  0  0
   13.6708   -1.2783    0.0000 C   0  0  0  0  0  0  0  0  0  0  0  0
  1 12  1  0
  1 29  1  0
  2 15  1  0
  2 30  1  0
  3 20  1  0
  3 32  1  0
  4 21  1  0
  4 33  1  0
  5 14  3  0
  6 23  1  0
  6 28  1  0
  6 31  1  0
  7  8  1  0
  7  9  1  0
  7 11  1  0
  7 14  1  0
  8 10  1  0
  8 13  2  0
  9 18  1  0
  9 19  1  0
 10 12  2  0
 11 17  1  0
 12 15  1  0
 13 16  1  0
 15 16  2  0
 17 23  1  0
 20 21  1  0
 20 24  2  0
 21 25  2  0
 22 24  1  0
 22 26  2  0
 22 27  1  0
 25 26  1  0
 27 28  1  0
M  END