
     RDKit          2D

 29 31  0  0  1  0  0  0  0  0999 V2000
    6.9417   -2.3667    0.0000 C   0  0  0  0  0  0  0  0  0  0  0  0
    6.6792   -2.9542    0.0000 C   0  0  0  0  0  0  0  0  0  0  0  0
    5.9667   -3.1417    0.0000 N   0  0  0  0  0  0  0  0  0  0  0  0
    5.9292   -1.6042    0.0000 S   0  0  0  0  0  0  0  0  0  0  0  0
    6.6042   -1.7042    0.0000 C   0  0  0  0  0  0  0  0  0  0  0  0
    5.4042   -2.6667    0.0000 C   0  0  0  0  0  0  0  0  0  0  0  0
    5.4042   -2.0292    0.0000 C   0  0  0  0  0  0  0  0  0  0  0  0
    7.7167   -2.3667    0.0000 O   0  0  0  0  0  0  0  0  0  0  0  0
    5.9667   -3.9917    0.0000 C   0  0  0  0  0  0  0  0  0  0  0  0
    7.2292   -1.3042    0.0000 C   0  0  0  0  0  0  0  0  0  0  0  0
    8.2917   -2.7167    0.0000 C   0  0  0  0  0  0  0  0  0  0  0  0
    7.1667   -3.4792    0.0000 O   0  0  0  0  0  0  0  0  0  0  0  0
    8.2917   -3.4167    0.0000 O   0  0  0  0  0  0  0  0  0  0  0  0
    7.8292   -1.6167    0.0000 C   0  0  0  0  0  0  0  0  0  0  0  0
    7.2292   -0.5917    0.0000 C   0  0  0  0  0  0  0  0  0  0  0  0
    6.6167   -4.3792    0.0000 C   0  0  0  0  0  0  0  0  0  0  0  0
    6.6167   -5.1292    0.0000 N   0  0  0  0  0  0  0  0  0  0  0  0
    8.4042   -0.5917    0.0000 C   0  0  0  0  0  0  0  0  0  0  0  0
    7.8292   -0.2292    0.0000 C   0  0  0  0  0  0  0  0  0  0  0  0
    8.4042   -1.2792    0.0000 C   0  0  0  0  0  0  0  0  0  0  0  0
    4.7667   -3.0417    0.0000 C   0  0  0  0  0  0  0  0  0  0  0  0
    8.9792   -0.2542    0.0000 O   0  0  0  0  0  0  0  0  0  0  0  0
    4.7667   -1.6417    0.0000 C   0  0  0  0  0  0  0  0  0  0  0  0
    8.9167   -2.3667    0.0000 C   0  0  0  0  0  0  0  0  0  0  0  0
    7.2417   -5.4667    0.0000 C   0  0  0  0  0  0  0  0  0  0  0  0
    6.0417   -5.4292    0.0000 C   0  0  0  0  0  0  0  0  0  0  0  0
    9.6292   -0.5917    0.0000 C   0  0  0  0  0  0  0  0  0  0  0  0
    4.1417   -2.7167    0.0000 C   0  0  0  0  0  0  0  0  0  0  0  0
    4.1417   -1.9792    0.0000 C   0  0  0  0  0  0  0  0  0  0  0  0
  2  1  1  0
  3  2  1  0
  4  5  1  0
  5  1  1  0
  6  3  1  0
  7  4  1  0
  1  8  1  1
  9  3  1  0
  5 10  1  1
 11  8  1  0
 12  2  2  0
 13 11  2  0
 14 10  2  0
 15 10  1  0
 16  9  1  0
 17 16  1  0
 18 19  1  0
 19 15  2  0
 20 14  1  0
 21  6  1  0
 22 18  1  0
 23  7  1  0
 24 11  1  0
 25 17  1  0
 26 17  1  0
 27 22  1  0
 28 21  2  0
 29 23  2  0
  6  7  2  0
 18 20  2  0
 28 29  1  0
M  END